L35
  xtb     12202208003D
xtb: 6.4.1 (afa7bdf)
 32 34  0     0  0            999 V2000
   -0.1972   -2.7397   -0.7703 C   0  0  0  0  0  0  0  0  0  0  0  0
   -1.4786   -2.0213   -0.4886 C   0  0  0  0  0  0  0  0  0  0  0  0
   -2.6855   -2.6945   -0.6081 C   0  0  0  0  0  0  0  0  0  0  0  0
   -3.8867   -2.0863   -0.2968 C   0  0  0  0  0  0  0  0  0  0  0  0
   -3.8883   -0.7832    0.1664 C   0  0  0  0  0  0  0  0  0  0  0  0
   -2.7051   -0.0744    0.2831 C   0  0  0  0  0  0  0  0  0  0  0  0
   -2.7163    1.3349    0.7936 C   0  0  0  0  0  0  0  0  0  0  0  0
   -1.4871   -0.6801   -0.0725 C   0  0  0  0  0  0  0  0  0  0  0  0
   -0.3148    0.0520    0.1138 N   0  0  0  0  0  0  0  0  0  0  0  0
    0.1167    1.2412    1.5637 Cu  0  0  0  0  0  2  0  0  0  0  0  0
    1.9291    1.4598    0.8407 N   0  0  0  0  0  0  0  0  0  0  0  0
    3.0374    2.0671    1.2478 C   0  0  0  0  0  3  0  0  0  0  0  0
    2.9444    2.6537    2.4563 O   0  0  0  0  0  0  0  0  0  0  0  0
    4.1951    2.0885    0.4745 C   0  0  0  0  0  3  0  0  0  0  0  0
    4.1717    1.4597   -0.7587 C   0  0  0  0  0  3  0  0  0  0  0  0
    3.0106    0.8330   -1.1784 C   0  0  0  0  0  3  0  0  0  0  0  0
    1.8970    0.8444   -0.3509 C   0  0  0  0  0  3  0  0  0  0  0  0
    0.6324    0.1415   -0.8169 C   0  0  0  0  0  0  0  0  0  0  0  0
    0.5942   -0.2485   -1.9815 O   0  0  0  0  0  0  0  0  0  0  0  0
    0.5382   -2.5286    0.0069 H   0  0  0  0  0  0  0  0  0  0  0  0
   -0.3625   -3.8134   -0.8244 H   0  0  0  0  0  0  0  0  0  0  0  0
    0.2219   -2.3937   -1.7158 H   0  0  0  0  0  0  0  0  0  0  0  0
   -2.6785   -3.7218   -0.9451 H   0  0  0  0  0  0  0  0  0  0  0  0
   -4.8149   -2.6290   -0.3986 H   0  0  0  0  0  0  0  0  0  0  0  0
   -4.8208   -0.3058    0.4340 H   0  0  0  0  0  0  0  0  0  0  0  0
   -2.5176    2.0429   -0.0104 H   0  0  0  0  0  0  0  0  0  0  0  0
   -1.9090    1.4632    1.5588 H   0  0  0  0  0  0  0  0  0  0  0  0
   -3.6699    1.5786    1.2553 H   0  0  0  0  0  0  0  0  0  0  0  0
    3.7771    3.0769    2.7002 H   0  0  0  0  0  0  0  0  0  0  0  0
    5.0824    2.5877    0.8350 H   0  0  0  0  0  0  0  0  0  0  0  0
    5.0533    1.4611   -1.3823 H   0  0  0  0  0  0  0  0  0  0  0  0
    2.9314    0.3342   -2.1308 H   0  0  0  0  0  0  0  0  0  0  0  0
  1  2  1  0  0  0  0
  1 20  1  0  0  0  0
  1 21  1  0  0  0  0
  1 22  1  0  0  0  0
  2  3  2  0  0  0  0
  2  8  1  0  0  0  0
  3  4  1  0  0  0  0
  3 23  1  0  0  0  0
  4  5  2  0  0  0  0
  4 24  1  0  0  0  0
  5  6  1  0  0  0  0
  5 25  1  0  0  0  0
  6  7  1  0  0  0  0
  6  8  2  0  0  0  0
  7 26  1  0  0  0  0
  7 27  1  0  0  0  0
  7 28  1  0  0  0  0
  8  9  1  0  0  0  0
  9 10  1  0  0  0  0
  9 18  1  0  0  0  0
 10 11  1  0  0  0  0
 11 12  1  0  0  0  0
 11 17  1  0  0  0  0
 12 13  1  0  0  0  0
 12 14  1  0  0  0  0
 13 29  1  0  0  0  0
 14 15  1  0  0  0  0
 14 30  1  0  0  0  0
 15 16  1  0  0  0  0
 15 31  1  0  0  0  0
 16 17  1  0  0  0  0
 16 32  1  0  0  0  0
 17 18  1  0  0  0  0
 18 19  2  0  0  0  0
M  END
> <total energy / Eh>
    -54.516754829803

> <gradient norm / Eh/a0>
      0.000369256187

$$$$
