L102
  xtb     03142303423D
xtb: 6.4.1 (afa7bdf)
 41 45  0     0  0            999 V2000
    1.8654   -4.7863    0.5858 C   0  0  0  0  0  0  0  0  0  0  0  0
    2.0789   -3.3082    0.4530 C   0  0  0  0  0  0  0  0  0  0  0  0
    3.3833   -2.8013    0.4655 C   0  0  0  0  0  0  0  0  0  0  0  0
    3.6322   -1.4530    0.3328 C   0  0  0  0  0  0  0  0  0  0  0  0
    2.5570   -0.5850    0.1912 C   0  0  0  0  0  0  0  0  0  0  0  0
    2.4660    0.8293   -0.0171 C   0  0  0  0  0  0  0  0  0  0  0  0
    3.3841    1.8622   -0.1456 C   0  0  0  0  0  0  0  0  0  0  0  0
    2.9260    3.1408   -0.3930 C   0  0  0  0  0  0  0  0  0  0  0  0
    1.5618    3.4281   -0.5249 C   0  0  0  0  0  0  0  0  0  0  0  0
    1.1150    4.8349   -0.7877 C   0  0  0  0  0  0  0  0  0  0  0  0
    0.6416    2.4060   -0.3827 C   0  0  0  0  0  0  0  0  0  0  0  0
    1.0849    1.1156   -0.1286 C   0  0  0  0  0  0  0  0  0  0  0  0
    0.3573   -0.0362    0.0296 N   0  0  0  0  0  0  0  0  0  0  0  0
   -1.0103    0.0142   -0.0997 N   0  0  0  0  0  0  0  0  0  0  0  0
   -1.9680    1.5817   -0.7843 Cu  0  0  0  0  0  2  0  0  0  0  0  0
   -3.6501    0.6023   -0.4249 N   0  0  0  0  0  0  0  0  0  0  0  0
   -4.9546    0.8181   -0.6319 C   0  0  0  0  0  3  0  0  0  0  0  0
   -5.2984    1.9165   -1.2899 O   0  0  0  0  0  0  0  0  0  0  0  0
   -5.9273    0.0250   -0.2336 N   0  0  0  0  0  2  0  0  0  0  0  0
   -5.5803   -1.0666    0.4353 C   0  0  0  0  0  3  0  0  0  0  0  0
   -4.2633   -1.3800    0.7143 C   0  0  0  0  0  3  0  0  0  0  0  0
   -3.2856   -0.5057    0.2502 C   0  0  0  0  0  3  0  0  0  0  0  0
   -1.8372   -0.7983    0.5592 C   0  0  0  0  0  0  0  0  0  0  0  0
   -1.5797   -1.7131    1.3365 O   0  0  0  0  0  0  0  0  0  0  0  0
    1.2327   -1.0917    0.1995 C   0  0  0  0  0  0  0  0  0  0  0  0
    0.9977   -2.4559    0.3088 C   0  0  0  0  0  0  0  0  0  0  0  0
    0.8054   -5.0240    0.6049 H   0  0  0  0  0  0  0  0  0  0  0  0
    2.3211   -5.1536    1.5045 H   0  0  0  0  0  0  0  0  0  0  0  0
    2.3279   -5.3138   -0.2485 H   0  0  0  0  0  0  0  0  0  0  0  0
    4.2081   -3.4907    0.5761 H   0  0  0  0  0  0  0  0  0  0  0  0
    4.6426   -1.0720    0.3326 H   0  0  0  0  0  0  0  0  0  0  0  0
    4.4420    1.6670   -0.0587 H   0  0  0  0  0  0  0  0  0  0  0  0
    3.6328    3.9510   -0.4950 H   0  0  0  0  0  0  0  0  0  0  0  0
    0.1001    4.8594   -1.1796 H   0  0  0  0  0  0  0  0  0  0  0  0
    1.1375    5.4136    0.1364 H   0  0  0  0  0  0  0  0  0  0  0  0
    1.7778    5.3211   -1.5001 H   0  0  0  0  0  0  0  0  0  0  0  0
   -0.4485    2.6298   -0.4753 H   0  0  0  0  0  0  0  0  0  0  0  0
   -4.5041    2.4165   -1.5418 H   0  0  0  0  0  0  0  0  0  0  0  0
   -6.4022   -1.6962    0.7464 H   0  0  0  0  0  0  0  0  0  0  0  0
   -3.9634   -2.2548    1.2658 H   0  0  0  0  0  0  0  0  0  0  0  0
   -0.0058   -2.8464    0.3141 H   0  0  0  0  0  0  0  0  0  0  0  0
  1  2  1  0  0  0  0
  1 27  1  0  0  0  0
  1 28  1  0  0  0  0
  1 29  1  0  0  0  0
  2  3  2  0  0  0  0
  2 26  1  0  0  0  0
  3  4  1  0  0  0  0
  3 30  1  0  0  0  0
  4  5  2  0  0  0  0
  4 31  1  0  0  0  0
  5  6  1  0  0  0  0
  5 25  1  0  0  0  0
  6  7  2  0  0  0  0
  6 12  1  0  0  0  0
  7  8  1  0  0  0  0
  7 32  1  0  0  0  0
  8  9  2  0  0  0  0
  8 33  1  0  0  0  0
  9 10  1  0  0  0  0
  9 11  1  0  0  0  0
 10 34  1  0  0  0  0
 10 35  1  0  0  0  0
 10 36  1  0  0  0  0
 11 12  2  0  0  0  0
 11 37  1  0  0  0  0
 12 13  1  0  0  0  0
 13 14  1  0  0  0  0
 13 25  1  0  0  0  0
 14 15  1  0  0  0  0
 14 23  1  0  0  0  0
 15 16  1  0  0  0  0
 16 17  1  0  0  0  0
 16 22  1  0  0  0  0
 17 18  1  0  0  0  0
 17 19  1  0  0  0  0
 18 38  1  0  0  0  0
 19 20  1  0  0  0  0
 20 21  1  0  0  0  0
 20 39  1  0  0  0  0
 21 22  1  0  0  0  0
 21 40  1  0  0  0  0
 22 23  1  0  0  0  0
 23 24  2  0  0  0  0
 25 26  2  0  0  0  0
 26 41  1  0  0  0  0
M  END
> <total energy / Eh>
    -72.116224819769

> <gradient norm / Eh/a0>
      0.000626075080

$$$$
