L77
  xtb     12232207063D
xtb: 6.4.1 (afa7bdf)
 56 62  0     0  0            999 V2000
    2.2187   -0.5012    1.6103 O   0  0  0  0  0  0  0  0  0  0  0  0
    1.2569   -1.2047    1.3109 C   0  0  0  0  0  0  0  0  0  0  0  0
    1.2340   -2.6372    1.8035 C   0  0  0  0  0  3  0  0  0  0  0  0
    2.3927   -3.1696    2.3515 C   0  0  0  0  0  3  0  0  0  0  0  0
    2.3820   -4.4717    2.8212 C   0  0  0  0  0  3  0  0  0  0  0  0
    1.2136   -5.2112    2.7459 C   0  0  0  0  0  3  0  0  0  0  0  0
    0.0871   -4.6077    2.1931 C   0  0  0  0  0  3  0  0  0  0  0  0
   -1.1028   -5.2267    2.0771 O   0  0  0  0  0  0  0  0  0  0  0  0
    0.1062   -3.3619    1.7357 N   0  0  0  0  0  0  0  0  0  0  0  0
   -1.2692   -2.2133    0.8943 Cu  0  0  0  0  0  2  0  0  0  0  0  0
    0.1892   -0.9149    0.5717 N   0  0  0  0  0  0  0  0  0  0  0  0
   -0.0238    0.3180   -0.0055 N   0  0  0  0  0  0  0  0  0  0  0  0
    0.8397    1.2209   -0.5939 C   0  0  0  0  0  0  0  0  0  0  0  0
    2.2230    1.2175   -0.6949 C   0  0  0  0  0  0  0  0  0  0  0  0
    2.8472    2.2644   -1.3609 C   0  0  0  0  0  0  0  0  0  0  0  0
    4.3137    2.2867   -1.4637 C   0  0  0  0  0  0  0  0  0  0  0  0
    5.0265    1.1142   -1.7049 C   0  0  0  0  0  0  0  0  0  0  0  0
    6.4051    1.1331   -1.8004 C   0  0  0  0  0  0  0  0  0  0  0  0
    7.0980    2.3231   -1.6541 C   0  0  0  0  0  0  0  0  0  0  0  0
    6.4011    3.4947   -1.4116 C   0  0  0  0  0  0  0  0  0  0  0  0
    5.0219    3.4777   -1.3192 C   0  0  0  0  0  0  0  0  0  0  0  0
    2.0878    3.2922   -1.9395 C   0  0  0  0  0  0  0  0  0  0  0  0
    0.7134    3.2931   -1.8646 C   0  0  0  0  0  0  0  0  0  0  0  0
    0.0751    2.2564   -1.1943 C   0  0  0  0  0  0  0  0  0  0  0  0
   -1.3022    1.9404   -0.9769 C   0  0  0  0  0  0  0  0  0  0  0  0
   -2.5088    2.5241   -1.3399 C   0  0  0  0  0  0  0  0  0  0  0  0
   -3.6896    1.9032   -0.9895 C   0  0  0  0  0  0  0  0  0  0  0  0
   -3.7052    0.6938   -0.2765 C   0  0  0  0  0  0  0  0  0  0  0  0
   -4.9797    0.0462    0.0667 C   0  0  0  0  0  0  0  0  0  0  0  0
   -5.1198   -1.3378   -0.0218 C   0  0  0  0  0  0  0  0  0  0  0  0
   -6.3182   -1.9472    0.2990 C   0  0  0  0  0  0  0  0  0  0  0  0
   -7.3976   -1.1865    0.7162 C   0  0  0  0  0  0  0  0  0  0  0  0
   -7.2698    0.1892    0.8099 C   0  0  0  0  0  0  0  0  0  0  0  0
   -6.0730    0.8008    0.4870 C   0  0  0  0  0  0  0  0  0  0  0  0
   -2.5035    0.1131    0.1027 C   0  0  0  0  0  0  0  0  0  0  0  0
   -1.3101    0.7250   -0.2476 C   0  0  0  0  0  0  0  0  0  0  0  0
    3.2700   -2.5448    2.3953 H   0  0  0  0  0  0  0  0  0  0  0  0
    3.2728   -4.9115    3.2433 H   0  0  0  0  0  0  0  0  0  0  0  0
    1.1673   -6.2281    3.1060 H   0  0  0  0  0  0  0  0  0  0  0  0
   -1.0610   -6.1265    2.4247 H   0  0  0  0  0  0  0  0  0  0  0  0
    2.8101    0.4529   -0.2160 H   0  0  0  0  0  0  0  0  0  0  0  0
    4.4912    0.1848   -1.8329 H   0  0  0  0  0  0  0  0  0  0  0  0
    6.9432    0.2154   -1.9913 H   0  0  0  0  0  0  0  0  0  0  0  0
    8.1759    2.3371   -1.7271 H   0  0  0  0  0  0  0  0  0  0  0  0
    6.9363    4.4259   -1.2906 H   0  0  0  0  0  0  0  0  0  0  0  0
    4.4872    4.3929   -1.1099 H   0  0  0  0  0  0  0  0  0  0  0  0
    2.5954    4.0812   -2.4748 H   0  0  0  0  0  0  0  0  0  0  0  0
    0.1339    4.0807   -2.3235 H   0  0  0  0  0  0  0  0  0  0  0  0
   -2.5214    3.4480   -1.8982 H   0  0  0  0  0  0  0  0  0  0  0  0
   -4.6307    2.3377   -1.2908 H   0  0  0  0  0  0  0  0  0  0  0  0
   -4.2886   -1.9386   -0.3653 H   0  0  0  0  0  0  0  0  0  0  0  0
   -6.4125   -3.0207    0.2192 H   0  0  0  0  0  0  0  0  0  0  0  0
   -8.3338   -1.6634    0.9659 H   0  0  0  0  0  0  0  0  0  0  0  0
   -8.1068    0.7879    1.1386 H   0  0  0  0  0  0  0  0  0  0  0  0
   -5.9748    1.8723    0.5802 H   0  0  0  0  0  0  0  0  0  0  0  0
   -2.5128   -0.8196    0.7096 H   0  0  0  0  0  0  0  0  0  0  0  0
  1  2  2  0  0  0  0
  2  3  1  0  0  0  0
  2 11  1  0  0  0  0
  3  4  1  0  0  0  0
  3  9  1  0  0  0  0
  4  5  1  0  0  0  0
  4 37  1  0  0  0  0
  5  6  1  0  0  0  0
  5 38  1  0  0  0  0
  6  7  1  0  0  0  0
  6 39  1  0  0  0  0
  7  8  1  0  0  0  0
  7  9  1  0  0  0  0
  8 40  1  0  0  0  0
  9 10  1  0  0  0  0
 10 11  1  0  0  0  0
 11 12  1  0  0  0  0
 12 13  1  0  0  0  0
 12 36  1  0  0  0  0
 13 14  2  0  0  0  0
 13 24  1  0  0  0  0
 14 15  1  0  0  0  0
 14 41  1  0  0  0  0
 15 16  1  0  0  0  0
 15 22  2  0  0  0  0
 16 17  2  0  0  0  0
 16 21  1  0  0  0  0
 17 18  1  0  0  0  0
 17 42  1  0  0  0  0
 18 19  2  0  0  0  0
 18 43  1  0  0  0  0
 19 20  1  0  0  0  0
 19 44  1  0  0  0  0
 20 21  2  0  0  0  0
 20 45  1  0  0  0  0
 21 46  1  0  0  0  0
 22 23  1  0  0  0  0
 22 47  1  0  0  0  0
 23 24  2  0  0  0  0
 23 48  1  0  0  0  0
 24 25  1  0  0  0  0
 25 26  2  0  0  0  0
 25 36  1  0  0  0  0
 26 27  1  0  0  0  0
 26 49  1  0  0  0  0
 27 28  2  0  0  0  0
 27 50  1  0  0  0  0
 28 29  1  0  0  0  0
 28 35  1  0  0  0  0
 29 30  2  0  0  0  0
 29 34  1  0  0  0  0
 30 31  1  0  0  0  0
 30 51  1  0  0  0  0
 31 32  2  0  0  0  0
 31 52  1  0  0  0  0
 32 33  1  0  0  0  0
 32 53  1  0  0  0  0
 33 34  2  0  0  0  0
 33 54  1  0  0  0  0
 34 55  1  0  0  0  0
 35 36  2  0  0  0  0
 35 56  1  0  0  0  0
M  END
> <total energy / Eh>
    -95.272504161435

> <gradient norm / Eh/a0>
      0.000327362010

$$$$
