L81
  xtb     01102303183D
xtb: 6.4.1 (afa7bdf)
 40 44  0     0  0            999 V2000
    1.2720   -1.8035    2.5746 C   0  0  0  0  0  0  0  0  0  0  0  0
    1.2242   -0.4080    2.5867 O   0  0  0  0  0  0  0  0  0  0  0  0
    2.1327    0.2072    1.7254 C   0  0  0  0  0  0  0  0  0  0  0  0
    3.3696    0.5810    2.2232 C   0  0  0  0  0  0  0  0  0  0  0  0
    4.3163    1.2262    1.4329 C   0  0  0  0  0  0  0  0  0  0  0  0
    4.0516    1.5071    0.1089 C   0  0  0  0  0  0  0  0  0  0  0  0
    2.8212    1.1409   -0.4187 C   0  0  0  0  0  0  0  0  0  0  0  0
    1.8485    0.4880    0.3863 C   0  0  0  0  0  0  0  0  0  0  0  0
    0.7404    0.2354   -0.3788 N   0  0  0  0  0  0  0  0  0  0  0  0
   -0.4346   -0.3535    0.0549 N   0  0  0  0  0  0  0  0  0  0  0  0
   -0.9094   -2.1415    0.6144 Cu  0  0  0  0  0  2  0  0  0  0  0  0
   -2.7934   -1.6149    0.6366 N   0  0  0  0  0  0  0  0  0  0  0  0
   -3.9154   -2.2329    0.9852 C   0  0  0  0  0  3  0  0  0  0  0  0
   -3.7778   -3.5507    1.2196 O   0  0  0  0  0  0  0  0  0  0  0  0
   -5.1296   -1.5588    1.0917 C   0  0  0  0  0  3  0  0  0  0  0  0
   -5.1493   -0.1985    0.8366 C   0  0  0  0  0  3  0  0  0  0  0  0
   -3.9730    0.4425    0.4847 C   0  0  0  0  0  3  0  0  0  0  0  0
   -2.8031   -0.2961    0.3901 C   0  0  0  0  0  3  0  0  0  0  0  0
   -1.5296    0.4166   -0.0120 C   0  0  0  0  0  0  0  0  0  0  0  0
   -1.5904    1.5875   -0.3648 O   0  0  0  0  0  0  0  0  0  0  0  0
    0.9498    0.7119   -1.6489 C   0  0  0  0  0  0  0  0  0  0  0  0
    0.1220    0.6526   -2.7619 C   0  0  0  0  0  0  0  0  0  0  0  0
    0.5959    1.1886   -3.9415 C   0  0  0  0  0  0  0  0  0  0  0  0
    1.8645    1.7626   -4.0233 C   0  0  0  0  0  0  0  0  0  0  0  0
    2.6963    1.8104   -2.9237 C   0  0  0  0  0  0  0  0  0  0  0  0
    2.2425    1.2793   -1.7223 C   0  0  0  0  0  0  0  0  0  0  0  0
    0.7367   -2.2280    1.6690 H   0  0  0  0  0  0  0  0  0  0  0  0
    2.3003   -2.1831    2.5635 H   0  0  0  0  0  0  0  0  0  0  0  0
    0.7574   -2.1501    3.4710 H   0  0  0  0  0  0  0  0  0  0  0  0
    3.5844    0.3690    3.2603 H   0  0  0  0  0  0  0  0  0  0  0  0
    5.2638    1.5050    1.8686 H   0  0  0  0  0  0  0  0  0  0  0  0
    4.7815    2.0053   -0.5105 H   0  0  0  0  0  0  0  0  0  0  0  0
   -4.6248   -3.9515    1.4529 H   0  0  0  0  0  0  0  0  0  0  0  0
   -6.0272   -2.0929    1.3662 H   0  0  0  0  0  0  0  0  0  0  0  0
   -6.0748    0.3522    0.9116 H   0  0  0  0  0  0  0  0  0  0  0  0
   -3.9269    1.4985    0.2731 H   0  0  0  0  0  0  0  0  0  0  0  0
   -0.8610    0.2109   -2.7019 H   0  0  0  0  0  0  0  0  0  0  0  0
   -0.0283    1.1636   -4.8231 H   0  0  0  0  0  0  0  0  0  0  0  0
    2.1965    2.1728   -4.9659 H   0  0  0  0  0  0  0  0  0  0  0  0
    3.6807    2.2490   -2.9908 H   0  0  0  0  0  0  0  0  0  0  0  0
  1  2  1  0  0  0  0
  1 27  1  0  0  0  0
  1 28  1  0  0  0  0
  1 29  1  0  0  0  0
  2  3  1  0  0  0  0
  3  4  2  0  0  0  0
  3  8  1  0  0  0  0
  4  5  1  0  0  0  0
  4 30  1  0  0  0  0
  5  6  2  0  0  0  0
  5 31  1  0  0  0  0
  6  7  1  0  0  0  0
  6 32  1  0  0  0  0
  7  8  2  0  0  0  0
  7 26  1  0  0  0  0
  8  9  1  0  0  0  0
  9 10  1  0  0  0  0
  9 21  1  0  0  0  0
 10 11  1  0  0  0  0
 10 19  1  0  0  0  0
 11 12  1  0  0  0  0
 12 13  1  0  0  0  0
 12 18  1  0  0  0  0
 13 14  1  0  0  0  0
 13 15  1  0  0  0  0
 14 33  1  0  0  0  0
 15 16  1  0  0  0  0
 15 34  1  0  0  0  0
 16 17  1  0  0  0  0
 16 35  1  0  0  0  0
 17 18  1  0  0  0  0
 17 36  1  0  0  0  0
 18 19  1  0  0  0  0
 19 20  2  0  0  0  0
 21 22  2  0  0  0  0
 21 26  1  0  0  0  0
 22 23  1  0  0  0  0
 22 37  1  0  0  0  0
 23 24  2  0  0  0  0
 23 38  1  0  0  0  0
 24 25  1  0  0  0  0
 24 39  1  0  0  0  0
 25 26  2  0  0  0  0
 25 40  1  0  0  0  0
M  END
> <total energy / Eh>
    -72.719810021488

> <gradient norm / Eh/a0>
      0.000836578335

$$$$
