L55
  xtb     12202207443D
xtb: 6.4.1 (afa7bdf)
 30 33  0     0  0            999 V2000
    1.0969    0.3063   -2.5329 O   0  0  0  0  0  0  0  0  0  0  0  0
    1.1025    0.3220   -1.3036 C   0  0  0  0  0  0  0  0  0  0  0  0
    2.3600    0.7513   -0.5833 C   0  0  0  0  0  3  0  0  0  0  0  0
    3.4566    1.1301   -1.3400 C   0  0  0  0  0  3  0  0  0  0  0  0
    4.6210    1.5292   -0.7016 C   0  0  0  0  0  3  0  0  0  0  0  0
    4.6684    1.5399    0.6789 C   0  0  0  0  0  3  0  0  0  0  0  0
    3.5289    1.1462    1.3784 C   0  0  0  0  0  3  0  0  0  0  0  0
    3.5394    1.1439    2.7160 O   0  0  0  0  0  0  0  0  0  0  0  0
    2.4120    0.7663    0.7645 N   0  0  0  0  0  0  0  0  0  0  0  0
    0.6135    0.1868    1.4108 Cu  0  0  0  0  0  2  0  0  0  0  0  0
    0.1180    0.0030   -0.4661 N   0  0  0  0  0  0  0  0  0  0  0  0
   -1.1133   -0.4040   -0.9025 N   0  0  0  0  0  0  0  0  0  0  0  0
   -1.5991   -0.5949   -2.1641 C   0  0  0  0  0  0  0  0  0  0  0  0
   -2.9019   -1.0037   -2.1000 C   0  0  0  0  0  0  0  0  0  0  0  0
   -3.2584   -1.0743   -0.7285 C   0  0  0  0  0  0  0  0  0  0  0  0
   -4.4102   -1.4124   -0.0178 C   0  0  0  0  0  0  0  0  0  0  0  0
   -4.3847   -1.3615    1.3583 C   0  0  0  0  0  0  0  0  0  0  0  0
   -3.2343   -0.9821    2.0611 C   0  0  0  0  0  0  0  0  0  0  0  0
   -2.0858   -0.6440    1.3832 C   0  0  0  0  0  0  0  0  0  0  0  0
   -2.1000   -0.6886   -0.0035 C   0  0  0  0  0  0  0  0  0  0  0  0
    3.3634    1.1009   -2.4136 H   0  0  0  0  0  0  0  0  0  0  0  0
    5.4846    1.8292   -1.2748 H   0  0  0  0  0  0  0  0  0  0  0  0
    5.5437    1.8383    1.2301 H   0  0  0  0  0  0  0  0  0  0  0  0
    2.6770    0.8453    3.0511 H   0  0  0  0  0  0  0  0  0  0  0  0
   -0.9701   -0.4207   -3.0145 H   0  0  0  0  0  0  0  0  0  0  0  0
   -3.5338   -1.2282   -2.9358 H   0  0  0  0  0  0  0  0  0  0  0  0
   -5.3064   -1.7084   -0.5423 H   0  0  0  0  0  0  0  0  0  0  0  0
   -5.2700   -1.6195    1.9203 H   0  0  0  0  0  0  0  0  0  0  0  0
   -3.2570   -0.9567    3.1403 H   0  0  0  0  0  0  0  0  0  0  0  0
   -1.1612   -0.3398    1.9320 H   0  0  0  0  0  0  0  0  0  0  0  0
  1  2  2  0  0  0  0
  2  3  1  0  0  0  0
  2 11  1  0  0  0  0
  3  4  1  0  0  0  0
  3  9  1  0  0  0  0
  4  5  1  0  0  0  0
  4 21  1  0  0  0  0
  5  6  1  0  0  0  0
  5 22  1  0  0  0  0
  6  7  1  0  0  0  0
  6 23  1  0  0  0  0
  7  8  1  0  0  0  0
  7  9  1  0  0  0  0
  8 24  1  0  0  0  0
  9 10  1  0  0  0  0
 10 11  1  0  0  0  0
 11 12  1  0  0  0  0
 12 13  1  0  0  0  0
 12 20  1  0  0  0  0
 13 14  2  0  0  0  0
 13 25  1  0  0  0  0
 14 15  1  0  0  0  0
 14 26  1  0  0  0  0
 15 16  2  0  0  0  0
 15 20  1  0  0  0  0
 16 17  1  0  0  0  0
 16 27  1  0  0  0  0
 17 18  2  0  0  0  0
 17 28  1  0  0  0  0
 18 19  1  0  0  0  0
 18 29  1  0  0  0  0
 19 20  2  0  0  0  0
 19 30  1  0  0  0  0
M  END
> <total energy / Eh>
    -55.902811156723

> <gradient norm / Eh/a0>
      0.000682341435

$$$$
