L105
  xtb     09042310183D
xtb: 6.4.1 (afa7bdf)
 44 48  0     0  0            999 V2000
    5.9617   -1.1006   -0.5633 C   0  0  0  0  0  0  0  0  0  0  0  0
    4.7778   -0.3585   -0.4056 O   0  0  0  0  0  0  0  0  0  0  0  0
    3.5863   -1.0316   -0.3521 C   0  0  0  0  0  3  0  0  0  0  0  0
    3.4524   -2.4219   -0.4256 C   0  0  0  0  0  3  0  0  0  0  0  0
    2.2083   -3.0242   -0.3461 C   0  0  0  0  0  3  0  0  0  0  0  0
    1.0746   -2.2435   -0.1976 C   0  0  0  0  0  3  0  0  0  0  0  0
   -0.3266   -2.5034   -0.0445 C   0  0  0  0  0  3  0  0  0  0  0  0
   -1.0761   -3.6667    0.0149 C   0  0  0  0  0  3  0  0  0  0  0  0
   -2.4382   -3.5882    0.2304 C   0  0  0  0  0  3  0  0  0  0  0  0
   -3.0613   -2.3474    0.3973 C   0  0  0  0  0  3  0  0  0  0  0  0
   -4.3966   -2.1886    0.6391 O   0  0  0  0  0  0  0  0  0  0  0  0
   -5.2212   -3.3247    0.6571 C   0  0  0  0  0  0  0  0  0  0  0  0
   -2.3289   -1.1647    0.3414 C   0  0  0  0  0  3  0  0  0  0  0  0
   -0.9696   -1.2443    0.0986 C   0  0  0  0  0  3  0  0  0  0  0  0
   -0.0156   -0.2526    0.0084 N   0  0  0  0  0  0  0  0  0  0  0  0
   -0.1071    1.1171    0.1427 N   0  0  0  0  0  0  0  0  0  0  0  0
    1.4382    2.2824    0.3915 Cu  0  0  0  0  0  2  0  0  0  0  0  0
    0.1988    3.8230    0.2428 N   0  0  0  0  0  0  0  0  0  0  0  0
    0.3173    5.1359    0.4166 C   0  0  0  0  0  3  0  0  0  0  0  0
    1.5148    5.6140    0.7720 O   0  0  0  0  0  0  0  0  0  0  0  0
   -0.7537    6.0104    0.2390 C   0  0  0  0  0  3  0  0  0  0  0  0
   -1.9715    5.4796   -0.1400 C   0  0  0  0  0  3  0  0  0  0  0  0
   -2.0893    4.1108   -0.3304 C   0  0  0  0  0  3  0  0  0  0  0  0
   -0.9869    3.2982   -0.1241 C   0  0  0  0  0  3  0  0  0  0  0  0
   -1.1259    1.8096   -0.3681 C   0  0  0  0  0  0  0  0  0  0  0  0
   -2.1165    1.4015   -0.9651 O   0  0  0  0  0  0  0  0  0  0  0  0
    1.2129   -0.8342   -0.1423 C   0  0  0  0  0  3  0  0  0  0  0  0
    2.4579   -0.2320   -0.2165 C   0  0  0  0  0  3  0  0  0  0  0  0
    6.7673   -0.3679   -0.5812 H   0  0  0  0  0  0  0  0  0  0  0  0
    5.9633   -1.6615   -1.5032 H   0  0  0  0  0  0  0  0  0  0  0  0
    6.1199   -1.7898    0.2725 H   0  0  0  0  0  0  0  0  0  0  0  0
    4.3249   -3.0440   -0.5406 H   0  0  0  0  0  0  0  0  0  0  0  0
    2.1301   -4.0995   -0.3957 H   0  0  0  0  0  0  0  0  0  0  0  0
   -0.6002   -4.6287   -0.1000 H   0  0  0  0  0  0  0  0  0  0  0  0
   -3.0121   -4.5001    0.2746 H   0  0  0  0  0  0  0  0  0  0  0  0
   -6.2312   -2.9529    0.8255 H   0  0  0  0  0  0  0  0  0  0  0  0
   -4.9510   -4.0099    1.4684 H   0  0  0  0  0  0  0  0  0  0  0  0
   -5.1905   -3.8624   -0.2964 H   0  0  0  0  0  0  0  0  0  0  0  0
   -2.8427   -0.2265    0.4526 H   0  0  0  0  0  0  0  0  0  0  0  0
    2.1487    4.8809    0.8523 H   0  0  0  0  0  0  0  0  0  0  0  0
   -0.6007    7.0643    0.3971 H   0  0  0  0  0  0  0  0  0  0  0  0
   -2.8215    6.1283   -0.2874 H   0  0  0  0  0  0  0  0  0  0  0  0
   -3.0119    3.6460   -0.6385 H   0  0  0  0  0  0  0  0  0  0  0  0
    2.5919    0.8685   -0.1706 H   0  0  0  0  0  0  0  0  0  0  0  0
  1  2  1  0  0  0  0
  1 29  1  0  0  0  0
  1 30  1  0  0  0  0
  1 31  1  0  0  0  0
  2  3  1  0  0  0  0
  3  4  1  0  0  0  0
  3 28  1  0  0  0  0
  4  5  1  0  0  0  0
  4 32  1  0  0  0  0
  5  6  1  0  0  0  0
  5 33  1  0  0  0  0
  6  7  1  0  0  0  0
  6 27  1  0  0  0  0
  7  8  1  0  0  0  0
  7 14  1  0  0  0  0
  8  9  1  0  0  0  0
  8 34  1  0  0  0  0
  9 10  1  0  0  0  0
  9 35  1  0  0  0  0
 10 11  1  0  0  0  0
 10 13  1  0  0  0  0
 11 12  1  0  0  0  0
 12 36  1  0  0  0  0
 12 37  1  0  0  0  0
 12 38  1  0  0  0  0
 13 14  1  0  0  0  0
 13 39  1  0  0  0  0
 14 15  1  0  0  0  0
 15 16  1  0  0  0  0
 15 27  1  0  0  0  0
 16 17  1  0  0  0  0
 16 25  1  0  0  0  0
 17 18  1  0  0  0  0
 18 19  1  0  0  0  0
 18 24  1  0  0  0  0
 19 20  1  0  0  0  0
 19 21  1  0  0  0  0
 20 40  1  0  0  0  0
 21 22  1  0  0  0  0
 21 41  1  0  0  0  0
 22 23  1  0  0  0  0
 22 42  1  0  0  0  0
 23 24  1  0  0  0  0
 23 43  1  0  0  0  0
 24 25  1  0  0  0  0
 25 26  2  0  0  0  0
 27 28  1  0  0  0  0
 28 44  1  0  0  0  0
M  END
> <total energy / Eh>
    -79.966042858075

> <gradient norm / Eh/a0>
      0.000600053955

$$$$
