L101
  xtb     03142303423D
xtb: 6.4.1 (afa7bdf)
 41 45  0     0  0            999 V2000
    5.5249   -0.7693    0.8451 C   0  0  0  0  0  0  0  0  0  0  0  0
    4.0697   -0.5822    0.5319 C   0  0  0  0  0  0  0  0  0  0  0  0
    3.0995   -1.0744    1.4081 C   0  0  0  0  0  0  0  0  0  0  0  0
    1.7383   -0.9280    1.1982 C   0  0  0  0  0  0  0  0  0  0  0  0
    0.7698   -1.4894    2.1987 C   0  0  0  0  0  0  0  0  0  0  0  0
    1.3420   -0.2461    0.0446 C   0  0  0  0  0  0  0  0  0  0  0  0
    2.3144    0.2513   -0.8584 C   0  0  0  0  0  0  0  0  0  0  0  0
    3.6696    0.0852   -0.6104 C   0  0  0  0  0  0  0  0  0  0  0  0
    1.6005    0.8544   -1.9450 C   0  0  0  0  0  0  0  0  0  0  0  0
    2.0031    1.4685   -3.1231 C   0  0  0  0  0  0  0  0  0  0  0  0
    1.0352    1.9076   -4.0034 C   0  0  0  0  0  0  0  0  0  0  0  0
   -0.3182    1.7209   -3.7281 C   0  0  0  0  0  0  0  0  0  0  0  0
   -0.7439    1.1100   -2.5656 C   0  0  0  0  0  0  0  0  0  0  0  0
    0.2245    0.6995   -1.6576 C   0  0  0  0  0  0  0  0  0  0  0  0
    0.0897    0.0481   -0.4534 N   0  0  0  0  0  0  0  0  0  0  0  0
   -1.1064   -0.2436    0.1678 N   0  0  0  0  0  0  0  0  0  0  0  0
   -1.7710   -1.8552    1.0302 Cu  0  0  0  0  0  2  0  0  0  0  0  0
   -3.5084   -0.9851    1.2370 N   0  0  0  0  0  0  0  0  0  0  0  0
   -4.6837   -1.3086    1.7691 C   0  0  0  0  0  3  0  0  0  0  0  0
   -4.8155   -2.5675    2.1749 O   0  0  0  0  0  0  0  0  0  0  0  0
   -5.7113   -0.4934    1.9167 N   0  0  0  0  0  2  0  0  0  0  0  0
   -5.5457    0.7658    1.5201 C   0  0  0  0  0  3  0  0  0  0  0  0
   -4.3546    1.2158    0.9872 C   0  0  0  0  0  3  0  0  0  0  0  0
   -3.3242    0.2888    0.8435 C   0  0  0  0  0  3  0  0  0  0  0  0
   -2.0117    0.7418    0.2612 C   0  0  0  0  0  0  0  0  0  0  0  0
   -1.8822    1.9165   -0.0690 O   0  0  0  0  0  0  0  0  0  0  0  0
    5.6919   -1.7067    1.3717 H   0  0  0  0  0  0  0  0  0  0  0  0
    6.1196   -0.7668   -0.0656 H   0  0  0  0  0  0  0  0  0  0  0  0
    5.8796    0.0422    1.4821 H   0  0  0  0  0  0  0  0  0  0  0  0
    3.4296   -1.5997    2.2939 H   0  0  0  0  0  0  0  0  0  0  0  0
    0.2147   -0.6876    2.6867 H   0  0  0  0  0  0  0  0  0  0  0  0
    0.0445   -2.1756    1.7009 H   0  0  0  0  0  0  0  0  0  0  0  0
    1.2921   -2.0644    2.9601 H   0  0  0  0  0  0  0  0  0  0  0  0
    4.3984    0.4710   -1.3073 H   0  0  0  0  0  0  0  0  0  0  0  0
    3.0529    1.5923   -3.3437 H   0  0  0  0  0  0  0  0  0  0  0  0
    1.3253    2.3924   -4.9242 H   0  0  0  0  0  0  0  0  0  0  0  0
   -1.0528    2.0586   -4.4446 H   0  0  0  0  0  0  0  0  0  0  0  0
   -1.7948    0.9646   -2.3749 H   0  0  0  0  0  0  0  0  0  0  0  0
   -5.7084   -2.6910    2.5298 H   0  0  0  0  0  0  0  0  0  0  0  0
   -6.4065    1.4076    1.6451 H   0  0  0  0  0  0  0  0  0  0  0  0
   -4.1903    2.2315    0.6696 H   0  0  0  0  0  0  0  0  0  0  0  0
  1  2  1  0  0  0  0
  1 27  1  0  0  0  0
  1 28  1  0  0  0  0
  1 29  1  0  0  0  0
  2  3  2  0  0  0  0
  2  8  1  0  0  0  0
  3  4  1  0  0  0  0
  3 30  1  0  0  0  0
  4  5  1  0  0  0  0
  4  6  2  0  0  0  0
  5 31  1  0  0  0  0
  5 32  1  0  0  0  0
  5 33  1  0  0  0  0
  6  7  1  0  0  0  0
  6 15  1  0  0  0  0
  7  8  2  0  0  0  0
  7  9  1  0  0  0  0
  8 34  1  0  0  0  0
  9 10  2  0  0  0  0
  9 14  1  0  0  0  0
 10 11  1  0  0  0  0
 10 35  1  0  0  0  0
 11 12  2  0  0  0  0
 11 36  1  0  0  0  0
 12 13  1  0  0  0  0
 12 37  1  0  0  0  0
 13 14  2  0  0  0  0
 13 38  1  0  0  0  0
 14 15  1  0  0  0  0
 15 16  1  0  0  0  0
 16 17  1  0  0  0  0
 16 25  1  0  0  0  0
 17 18  1  0  0  0  0
 18 19  1  0  0  0  0
 18 24  1  0  0  0  0
 19 20  1  0  0  0  0
 19 21  1  0  0  0  0
 20 39  1  0  0  0  0
 21 22  1  0  0  0  0
 22 23  1  0  0  0  0
 22 40  1  0  0  0  0
 23 24  1  0  0  0  0
 23 41  1  0  0  0  0
 24 25  1  0  0  0  0
 25 26  2  0  0  0  0
M  END
> <total energy / Eh>
    -72.116951505481

> <gradient norm / Eh/a0>
      0.000896912446

$$$$
