L89
  xtb     01102303193D
xtb: 6.4.1 (afa7bdf)
 60 64  0     0  0            999 V2000
    2.3170   -5.3649    1.0157 C   0  0  0  0  0  0  0  0  0  0  0  0
    1.3564   -4.8280   -0.0550 C   0  0  0  0  0  0  0  0  0  0  0  0
    1.6038   -5.5495   -1.3874 C   0  0  0  0  0  0  0  0  0  0  0  0
   -0.0738   -5.1430    0.3953 C   0  0  0  0  0  0  0  0  0  0  0  0
    1.6064   -3.3386   -0.2456 C   0  0  0  0  0  0  0  0  0  0  0  0
    2.8847   -2.9069   -0.6338 C   0  0  0  0  0  0  0  0  0  0  0  0
    3.1980   -1.5749   -0.8079 C   0  0  0  0  0  0  0  0  0  0  0  0
    2.2166   -0.6163   -0.6022 C   0  0  0  0  0  0  0  0  0  0  0  0
    2.1697    0.8137   -0.6403 C   0  0  0  0  0  0  0  0  0  0  0  0
    3.1174    1.7941   -0.8913 C   0  0  0  0  0  0  0  0  0  0  0  0
    2.7553    3.1223   -0.7931 C   0  0  0  0  0  0  0  0  0  0  0  0
    1.4596    3.5077   -0.4356 C   0  0  0  0  0  0  0  0  0  0  0  0
    1.0419    4.9667   -0.3198 C   0  0  0  0  0  0  0  0  0  0  0  0
   -0.0788    5.2399   -1.3327 C   0  0  0  0  0  0  0  0  0  0  0  0
    0.5309    5.2318    1.1037 C   0  0  0  0  0  0  0  0  0  0  0  0
    2.1890    5.9420   -0.5994 C   0  0  0  0  0  0  0  0  0  0  0  0
    0.5078    2.5311   -0.1733 C   0  0  0  0  0  0  0  0  0  0  0  0
    0.8473    1.1937   -0.2988 C   0  0  0  0  0  0  0  0  0  0  0  0
    0.0994    0.0521   -0.0860 N   0  0  0  0  0  0  0  0  0  0  0  0
   -1.2066   -0.1251    0.3119 N   0  0  0  0  0  0  0  0  0  0  0  0
   -1.9104   -1.8394    0.9850 Cu  0  0  0  0  0  2  0  0  0  0  0  0
   -3.6760   -0.9572    1.0715 N   0  0  0  0  0  0  0  0  0  0  0  0
   -4.8622   -1.3442    1.5232 C   0  0  0  0  0  3  0  0  0  0  0  0
   -4.8746   -2.5707    2.0799 O   0  0  0  0  0  0  0  0  0  0  0  0
   -5.9935   -0.5396    1.4206 C   0  0  0  0  0  3  0  0  0  0  0  0
   -5.8615    0.6999    0.8164 C   0  0  0  0  0  3  0  0  0  0  0  0
   -4.6237    1.0946    0.3405 C   0  0  0  0  0  3  0  0  0  0  0  0
   -3.5361    0.2436    0.4871 C   0  0  0  0  0  3  0  0  0  0  0  0
   -2.1971    0.6786   -0.0684 C   0  0  0  0  0  0  0  0  0  0  0  0
   -2.1593    1.6900   -0.7674 O   0  0  0  0  0  0  0  0  0  0  0  0
    0.9178   -1.0390   -0.2371 C   0  0  0  0  0  0  0  0  0  0  0  0
    0.6229   -2.3842   -0.0591 C   0  0  0  0  0  0  0  0  0  0  0  0
    3.3536   -5.2350    0.7196 H   0  0  0  0  0  0  0  0  0  0  0  0
    2.1632   -4.8389    1.9557 H   0  0  0  0  0  0  0  0  0  0  0  0
    2.1408   -6.4260    1.1799 H   0  0  0  0  0  0  0  0  0  0  0  0
    0.9362   -5.1614   -2.1538 H   0  0  0  0  0  0  0  0  0  0  0  0
    2.6262   -5.4124   -1.7271 H   0  0  0  0  0  0  0  0  0  0  0  0
    1.4210   -6.6165   -1.2769 H   0  0  0  0  0  0  0  0  0  0  0  0
   -0.3014   -4.6690    1.3482 H   0  0  0  0  0  0  0  0  0  0  0  0
   -0.1813   -6.2184    0.5228 H   0  0  0  0  0  0  0  0  0  0  0  0
   -0.8016   -4.8217   -0.3469 H   0  0  0  0  0  0  0  0  0  0  0  0
    3.6590   -3.6399   -0.7986 H   0  0  0  0  0  0  0  0  0  0  0  0
    4.1964   -1.2821   -1.0963 H   0  0  0  0  0  0  0  0  0  0  0  0
    4.1280    1.5190   -1.1557 H   0  0  0  0  0  0  0  0  0  0  0  0
    3.5060    3.8687   -0.9940 H   0  0  0  0  0  0  0  0  0  0  0  0
   -0.9169    4.5655   -1.1836 H   0  0  0  0  0  0  0  0  0  0  0  0
   -0.4343    6.2642   -1.2346 H   0  0  0  0  0  0  0  0  0  0  0  0
    0.2913    5.0974   -2.3459 H   0  0  0  0  0  0  0  0  0  0  0  0
   -0.3440    4.6278    1.3260 H   0  0  0  0  0  0  0  0  0  0  0  0
    1.3049    4.9952    1.8316 H   0  0  0  0  0  0  0  0  0  0  0  0
    0.2590    6.2798    1.2164 H   0  0  0  0  0  0  0  0  0  0  0  0
    1.8266    6.9640   -0.5027 H   0  0  0  0  0  0  0  0  0  0  0  0
    3.0021    5.8048    0.1101 H   0  0  0  0  0  0  0  0  0  0  0  0
    2.5719    5.8174   -1.6096 H   0  0  0  0  0  0  0  0  0  0  0  0
   -0.4979    2.8016    0.0942 H   0  0  0  0  0  0  0  0  0  0  0  0
   -5.7591   -2.7989    2.3922 H   0  0  0  0  0  0  0  0  0  0  0  0
   -6.9443   -0.8824    1.8006 H   0  0  0  0  0  0  0  0  0  0  0  0
   -6.7203    1.3466    0.7190 H   0  0  0  0  0  0  0  0  0  0  0  0
   -4.4658    2.0425   -0.1479 H   0  0  0  0  0  0  0  0  0  0  0  0
   -0.4073   -2.6721    0.2407 H   0  0  0  0  0  0  0  0  0  0  0  0
  2  1  1  0  0  0  0
  1 33  1  0  0  0  0
  1 34  1  0  0  0  0
  1 35  1  0  0  0  0
  2  3  1  0  0  0  0
  2  4  1  0  0  0  0
  2  5  1  0  0  0  0
  3 36  1  0  0  0  0
  3 37  1  0  0  0  0
  3 38  1  0  0  0  0
  4 39  1  0  0  0  0
  4 40  1  0  0  0  0
  4 41  1  0  0  0  0
  5  6  2  0  0  0  0
  5 32  1  0  0  0  0
  6  7  1  0  0  0  0
  6 42  1  0  0  0  0
  7  8  2  0  0  0  0
  7 43  1  0  0  0  0
  8  9  1  0  0  0  0
  8 31  1  0  0  0  0
  9 10  2  0  0  0  0
  9 18  1  0  0  0  0
 10 11  1  0  0  0  0
 10 44  1  0  0  0  0
 11 12  2  0  0  0  0
 11 45  1  0  0  0  0
 12 13  1  0  0  0  0
 12 17  1  0  0  0  0
 13 14  1  0  0  0  0
 13 15  1  0  0  0  0
 13 16  1  0  0  0  0
 14 46  1  0  0  0  0
 14 47  1  0  0  0  0
 14 48  1  0  0  0  0
 15 49  1  0  0  0  0
 15 50  1  0  0  0  0
 15 51  1  0  0  0  0
 16 52  1  0  0  0  0
 16 53  1  0  0  0  0
 16 54  1  0  0  0  0
 17 18  2  0  0  0  0
 17 55  1  0  0  0  0
 18 19  1  0  0  0  0
 19 20  1  0  0  0  0
 19 31  1  0  0  0  0
 20 21  1  0  0  0  0
 20 29  1  0  0  0  0
 21 22  1  0  0  0  0
 22 23  1  0  0  0  0
 22 28  1  0  0  0  0
 23 24  1  0  0  0  0
 23 25  1  0  0  0  0
 24 56  1  0  0  0  0
 25 26  1  0  0  0  0
 25 57  1  0  0  0  0
 26 27  1  0  0  0  0
 26 58  1  0  0  0  0
 27 28  1  0  0  0  0
 27 59  1  0  0  0  0
 28 29  1  0  0  0  0
 29 30  2  0  0  0  0
 31 32  2  0  0  0  0
 32 60  1  0  0  0  0
M  END
> <total energy / Eh>
    -90.828777907338

> <gradient norm / Eh/a0>
      0.000378538815

$$$$
