L73
  xtb     12232207063D
xtb: 6.4.1 (afa7bdf)
 56 63  0     0  0            999 V2000
    2.2098   -1.8992    1.9273 O   0  0  0  0  0  0  0  0  0  0  0  0
    3.1511   -1.7197    1.1601 C   0  0  0  0  0  0  0  0  0  0  0  0
    4.3454   -2.6455    1.2469 C   0  0  0  0  0  3  0  0  0  0  0  0
    4.2415   -3.7953    2.0164 C   0  0  0  0  0  3  0  0  0  0  0  0
    5.3339   -4.6401    2.1191 C   0  0  0  0  0  3  0  0  0  0  0  0
    6.5074   -4.3149    1.4607 C   0  0  0  0  0  3  0  0  0  0  0  0
    6.5422   -3.1374    0.7174 C   0  0  0  0  0  3  0  0  0  0  0  0
    7.6311   -2.7170    0.0479 O   0  0  0  0  0  0  0  0  0  0  0  0
    5.4899   -2.3344    0.6180 N   0  0  0  0  0  0  0  0  0  0  0  0
    5.1747   -0.5986   -0.2893 Cu  0  0  0  0  0  2  0  0  0  0  0  0
    3.2856   -0.8064    0.1982 N   0  0  0  0  0  0  0  0  0  0  0  0
    2.3151    0.1418   -0.0371 N   0  0  0  0  0  0  0  0  0  0  0  0
    2.6716    1.4037   -0.4320 C   0  0  0  0  0  0  0  0  0  0  0  0
    3.9376    1.9324   -0.6470 C   0  0  0  0  0  0  0  0  0  0  0  0
    4.0418    3.2426   -1.0638 C   0  0  0  0  0  0  0  0  0  0  0  0
    2.9009    4.0236   -1.2554 C   0  0  0  0  0  0  0  0  0  0  0  0
    1.6360    3.5054   -1.0562 C   0  0  0  0  0  0  0  0  0  0  0  0
    1.5091    2.1843   -0.6485 C   0  0  0  0  0  0  0  0  0  0  0  0
    0.4008    1.3139   -0.3916 C   0  0  0  0  0  0  0  0  0  0  0  0
   -0.9721    1.4931   -0.4808 C   0  0  0  0  0  0  0  0  0  0  0  0
   -1.7990    0.4139   -0.2161 C   0  0  0  0  0  0  0  0  0  0  0  0
   -3.1960    0.5636   -0.2897 N   0  0  0  0  0  0  0  0  0  0  0  0
   -4.0535   -0.2218   -1.0276 C   0  0  0  0  0  0  0  0  0  0  0  0
   -3.7679   -1.2703   -1.8914 C   0  0  0  0  0  0  0  0  0  0  0  0
   -4.8260   -1.8836   -2.5328 C   0  0  0  0  0  0  0  0  0  0  0  0
   -6.1404   -1.4659   -2.3315 C   0  0  0  0  0  0  0  0  0  0  0  0
   -6.4293   -0.4110   -1.4895 C   0  0  0  0  0  0  0  0  0  0  0  0
   -5.3826    0.2230   -0.8328 C   0  0  0  0  0  0  0  0  0  0  0  0
   -5.3099    1.3318    0.0756 C   0  0  0  0  0  0  0  0  0  0  0  0
   -6.2619    2.1638    0.6505 C   0  0  0  0  0  0  0  0  0  0  0  0
   -5.8409    3.1482    1.5216 C   0  0  0  0  0  0  0  0  0  0  0  0
   -4.4906    3.3028    1.8309 C   0  0  0  0  0  0  0  0  0  0  0  0
   -3.5246    2.4891    1.2723 C   0  0  0  0  0  0  0  0  0  0  0  0
   -3.9400    1.5082    0.3824 C   0  0  0  0  0  0  0  0  0  0  0  0
   -1.2579   -0.8337    0.1190 C   0  0  0  0  0  0  0  0  0  0  0  0
    0.1030   -1.0339    0.2001 C   0  0  0  0  0  0  0  0  0  0  0  0
    0.9418    0.0508   -0.0318 C   0  0  0  0  0  0  0  0  0  0  0  0
    3.3068   -3.9930    2.5154 H   0  0  0  0  0  0  0  0  0  0  0  0
    5.2764   -5.5442    2.7060 H   0  0  0  0  0  0  0  0  0  0  0  0
    7.3795   -4.9490    1.5195 H   0  0  0  0  0  0  0  0  0  0  0  0
    8.3646   -3.3360    0.1539 H   0  0  0  0  0  0  0  0  0  0  0  0
    4.8458    1.3075   -0.4972 H   0  0  0  0  0  0  0  0  0  0  0  0
    5.0153    3.6744   -1.2426 H   0  0  0  0  0  0  0  0  0  0  0  0
    3.0170    5.0489   -1.5724 H   0  0  0  0  0  0  0  0  0  0  0  0
    0.7593    4.1136   -1.2193 H   0  0  0  0  0  0  0  0  0  0  0  0
   -1.3887    2.4473   -0.7656 H   0  0  0  0  0  0  0  0  0  0  0  0
   -2.7507   -1.5898   -2.0622 H   0  0  0  0  0  0  0  0  0  0  0  0
   -4.6309   -2.7038   -3.2085 H   0  0  0  0  0  0  0  0  0  0  0  0
   -6.9404   -1.9739   -2.8500 H   0  0  0  0  0  0  0  0  0  0  0  0
   -7.4467   -0.0797   -1.3438 H   0  0  0  0  0  0  0  0  0  0  0  0
   -7.3094    2.0364    0.4210 H   0  0  0  0  0  0  0  0  0  0  0  0
   -6.5653    3.8062    1.9789 H   0  0  0  0  0  0  0  0  0  0  0  0
   -4.1939    4.0745    2.5263 H   0  0  0  0  0  0  0  0  0  0  0  0
   -2.4819    2.6039    1.5276 H   0  0  0  0  0  0  0  0  0  0  0  0
   -1.9318   -1.6521    0.3231 H   0  0  0  0  0  0  0  0  0  0  0  0
    0.4976   -1.9978    0.4704 H   0  0  0  0  0  0  0  0  0  0  0  0
  1  2  2  0  0  0  0
  2  3  1  0  0  0  0
  2 11  1  0  0  0  0
  3  4  1  0  0  0  0
  3  9  1  0  0  0  0
  4  5  1  0  0  0  0
  4 38  1  0  0  0  0
  5  6  1  0  0  0  0
  5 39  1  0  0  0  0
  6  7  1  0  0  0  0
  6 40  1  0  0  0  0
  7  8  1  0  0  0  0
  7  9  1  0  0  0  0
  8 41  1  0  0  0  0
  9 10  1  0  0  0  0
 10 11  1  0  0  0  0
 11 12  1  0  0  0  0
 12 13  1  0  0  0  0
 12 37  1  0  0  0  0
 13 14  2  0  0  0  0
 13 18  1  0  0  0  0
 14 15  1  0  0  0  0
 14 42  1  0  0  0  0
 15 16  2  0  0  0  0
 15 43  1  0  0  0  0
 16 17  1  0  0  0  0
 16 44  1  0  0  0  0
 17 18  2  0  0  0  0
 17 45  1  0  0  0  0
 18 19  1  0  0  0  0
 19 20  2  0  0  0  0
 19 37  1  0  0  0  0
 20 21  1  0  0  0  0
 20 46  1  0  0  0  0
 21 22  1  0  0  0  0
 21 35  2  0  0  0  0
 22 23  1  0  0  0  0
 22 34  1  0  0  0  0
 23 24  2  0  0  0  0
 23 28  1  0  0  0  0
 24 25  1  0  0  0  0
 24 47  1  0  0  0  0
 25 26  2  0  0  0  0
 25 48  1  0  0  0  0
 26 27  1  0  0  0  0
 26 49  1  0  0  0  0
 27 28  2  0  0  0  0
 27 50  1  0  0  0  0
 28 29  1  0  0  0  0
 29 30  2  0  0  0  0
 29 34  1  0  0  0  0
 30 31  1  0  0  0  0
 30 51  1  0  0  0  0
 31 32  2  0  0  0  0
 31 52  1  0  0  0  0
 32 33  1  0  0  0  0
 32 53  1  0  0  0  0
 33 34  2  0  0  0  0
 33 54  1  0  0  0  0
 35 36  1  0  0  0  0
 35 55  1  0  0  0  0
 36 37  2  0  0  0  0
 36 56  1  0  0  0  0
M  END
> <total energy / Eh>
    -97.732437132564

> <gradient norm / Eh/a0>
      0.000218473837

$$$$
