L96
  xtb     01102303193D
xtb: 6.4.1 (afa7bdf)
 46 50  0     0  0            999 V2000
    7.0688   -0.4418   -0.9241 C   0  0  0  0  0  0  0  0  0  0  0  0
    5.6981   -0.7283   -1.1054 O   0  0  0  0  0  0  0  0  0  0  0  0
    4.7857    0.0903   -0.5691 C   0  0  0  0  0  3  0  0  0  0  0  0
    5.0734    1.2341    0.1691 C   0  0  0  0  0  3  0  0  0  0  0  0
    4.0132    1.9828    0.6679 C   0  0  0  0  0  3  0  0  0  0  0  0
    4.2742    3.0911    1.3714 O   0  0  0  0  0  0  0  0  0  0  0  0
    2.7408    1.6524    0.4781 N   0  0  0  0  0  0  0  0  0  0  0  0
    2.4498    0.5422   -0.2346 C   0  0  0  0  0  3  0  0  0  0  0  0
    3.4377   -0.2449   -0.7731 C   0  0  0  0  0  3  0  0  0  0  0  0
    0.9977    0.1810   -0.4838 C   0  0  0  0  0  0  0  0  0  0  0  0
    0.7099   -0.5168   -1.4467 O   0  0  0  0  0  0  0  0  0  0  0  0
    0.1866    0.6719    0.4613 N   0  0  0  0  0  0  0  0  0  0  0  0
   -1.1785    0.4644    0.3192 N   0  0  0  0  0  0  0  0  0  0  0  0
   -2.0272    1.5254    0.1989 C   0  0  0  0  0  0  0  0  0  0  0  0
   -1.7544    2.8807    0.3257 C   0  0  0  0  0  0  0  0  0  0  0  0
   -2.7946    3.7759    0.1934 C   0  0  0  0  0  0  0  0  0  0  0  0
   -4.0893    3.3258   -0.0697 C   0  0  0  0  0  0  0  0  0  0  0  0
   -4.3731    1.9783   -0.1862 C   0  0  0  0  0  0  0  0  0  0  0  0
   -3.3425    1.0591   -0.0448 C   0  0  0  0  0  0  0  0  0  0  0  0
   -3.2534   -0.3705   -0.0543 C   0  0  0  0  0  0  0  0  0  0  0  0
   -4.2126   -1.3630   -0.2212 C   0  0  0  0  0  0  0  0  0  0  0  0
   -3.8328   -2.6849   -0.1125 C   0  0  0  0  0  0  0  0  0  0  0  0
   -4.8199   -3.7981   -0.3077 C   0  0  0  0  0  0  0  0  0  0  0  0
   -2.5052   -2.9919    0.2052 C   0  0  0  0  0  0  0  0  0  0  0  0
   -1.5197   -2.0381    0.3833 C   0  0  0  0  0  0  0  0  0  0  0  0
   -0.1361   -2.4486    0.7874 C   0  0  0  0  0  0  0  0  0  0  0  0
   -1.8990   -0.7060    0.1989 C   0  0  0  0  0  0  0  0  0  0  0  0
    0.9687    2.3556    1.0112 Cu  0  0  0  0  0  2  0  0  0  0  0  0
    7.6047   -1.2419   -1.4312 H   0  0  0  0  0  0  0  0  0  0  0  0
    7.3373   -0.4385    0.1360 H   0  0  0  0  0  0  0  0  0  0  0  0
    7.3373    0.5181   -1.3738 H   0  0  0  0  0  0  0  0  0  0  0  0
    6.0736    1.5752    0.3713 H   0  0  0  0  0  0  0  0  0  0  0  0
    3.4385    3.4997    1.6518 H   0  0  0  0  0  0  0  0  0  0  0  0
    3.1710   -1.1120   -1.3536 H   0  0  0  0  0  0  0  0  0  0  0  0
   -0.7208    3.2317    0.5442 H   0  0  0  0  0  0  0  0  0  0  0  0
   -2.6108    4.8357    0.2921 H   0  0  0  0  0  0  0  0  0  0  0  0
   -4.8817    4.0517   -0.1753 H   0  0  0  0  0  0  0  0  0  0  0  0
   -5.3817    1.6442   -0.3779 H   0  0  0  0  0  0  0  0  0  0  0  0
   -5.2390   -1.0946   -0.4248 H   0  0  0  0  0  0  0  0  0  0  0  0
   -4.7909   -4.4903    0.5328 H   0  0  0  0  0  0  0  0  0  0  0  0
   -4.5798   -4.3603   -1.2104 H   0  0  0  0  0  0  0  0  0  0  0  0
   -5.8303   -3.4086   -0.4044 H   0  0  0  0  0  0  0  0  0  0  0  0
   -2.2396   -4.0327    0.3313 H   0  0  0  0  0  0  0  0  0  0  0  0
    0.5250   -2.4342   -0.0772 H   0  0  0  0  0  0  0  0  0  0  0  0
    0.2674   -1.7655    1.5334 H   0  0  0  0  0  0  0  0  0  0  0  0
   -0.1460   -3.4560    1.1978 H   0  0  0  0  0  0  0  0  0  0  0  0
  1  2  1  0  0  0  0
  1 29  1  0  0  0  0
  1 30  1  0  0  0  0
  1 31  1  0  0  0  0
  2  3  1  0  0  0  0
  3  4  1  0  0  0  0
  3  9  1  0  0  0  0
  4  5  1  0  0  0  0
  4 32  1  0  0  0  0
  5  6  1  0  0  0  0
  5  7  1  0  0  0  0
  6 33  1  0  0  0  0
  7  8  1  0  0  0  0
  7 28  1  0  0  0  0
  8  9  1  0  0  0  0
  8 10  1  0  0  0  0
  9 34  1  0  0  0  0
 10 11  2  0  0  0  0
 10 12  1  0  0  0  0
 12 13  1  0  0  0  0
 12 28  1  0  0  0  0
 13 14  1  0  0  0  0
 13 27  1  0  0  0  0
 14 15  2  0  0  0  0
 14 19  1  0  0  0  0
 15 16  1  0  0  0  0
 15 35  1  0  0  0  0
 16 17  2  0  0  0  0
 16 36  1  0  0  0  0
 17 18  1  0  0  0  0
 17 37  1  0  0  0  0
 18 19  2  0  0  0  0
 18 38  1  0  0  0  0
 19 20  1  0  0  0  0
 20 21  2  0  0  0  0
 20 27  1  0  0  0  0
 21 22  1  0  0  0  0
 21 39  1  0  0  0  0
 22 23  1  0  0  0  0
 22 24  2  0  0  0  0
 23 40  1  0  0  0  0
 23 41  1  0  0  0  0
 23 42  1  0  0  0  0
 24 25  1  0  0  0  0
 24 43  1  0  0  0  0
 25 26  1  0  0  0  0
 25 27  2  0  0  0  0
 26 44  1  0  0  0  0
 26 45  1  0  0  0  0
 26 46  1  0  0  0  0
M  END
> <total energy / Eh>
    -79.075076798152

> <gradient norm / Eh/a0>
      0.000294088530

$$$$
