L91
  xtb     01102303193D
xtb: 6.4.1 (afa7bdf)
 45 49  0     0  0            999 V2000
    1.8262   -0.8923    2.3178 C   0  0  0  0  0  0  0  0  0  0  0  0
    2.4572   -1.1709    0.9366 C   0  0  0  0  0  0  0  0  0  0  0  0
    3.7932   -1.8826    1.1491 C   0  0  0  0  0  0  0  0  0  0  0  0
    2.6127    0.1581    0.2244 C   0  0  0  0  0  0  0  0  0  0  0  0
    3.8075    0.8451    0.1166 C   0  0  0  0  0  0  0  0  0  0  0  0
    3.8684    2.1178   -0.4333 C   0  0  0  0  0  0  0  0  0  0  0  0
    2.7125    2.7272   -0.8855 C   0  0  0  0  0  0  0  0  0  0  0  0
    1.5147    2.0477   -0.8108 C   0  0  0  0  0  0  0  0  0  0  0  0
    1.4430    0.7611   -0.2764 C   0  0  0  0  0  0  0  0  0  0  0  0
    0.2653    0.0441   -0.2533 N   0  0  0  0  0  0  0  0  0  0  0  0
   -0.9351    0.7160   -0.4585 N   0  0  0  0  0  0  0  0  0  0  0  0
   -1.3506    2.3708   -1.3420 Cu  0  0  0  0  0  2  0  0  0  0  0  0
   -3.2281    2.1784   -0.8066 N   0  0  0  0  0  0  0  0  0  0  0  0
   -4.3492    2.8605   -1.0220 C   0  0  0  0  0  3  0  0  0  0  0  0
   -4.2835    3.9341   -1.8174 O   0  0  0  0  0  0  0  0  0  0  0  0
   -5.5670    2.4917   -0.4541 C   0  0  0  0  0  3  0  0  0  0  0  0
   -5.5917    1.3818    0.3691 C   0  0  0  0  0  3  0  0  0  0  0  0
   -4.4195    0.6789    0.6016 C   0  0  0  0  0  3  0  0  0  0  0  0
   -3.2444    1.0930   -0.0047 C   0  0  0  0  0  3  0  0  0  0  0  0
   -1.9799    0.3184    0.2765 C   0  0  0  0  0  0  0  0  0  0  0  0
   -2.0060   -0.5923    1.1001 O   0  0  0  0  0  0  0  0  0  0  0  0
    0.3368   -1.3408   -0.3622 C   0  0  0  0  0  0  0  0  0  0  0  0
   -0.6520   -2.0572   -1.0309 C   0  0  0  0  0  0  0  0  0  0  0  0
   -0.5301   -3.4223   -1.1917 C   0  0  0  0  0  0  0  0  0  0  0  0
    0.5895   -4.0774   -0.7129 C   0  0  0  0  0  0  0  0  0  0  0  0
    1.5790   -3.3638   -0.0564 C   0  0  0  0  0  0  0  0  0  0  0  0
    1.4666   -1.9988    0.1424 C   0  0  0  0  0  0  0  0  0  0  0  0
    0.8362   -0.4569    2.2109 H   0  0  0  0  0  0  0  0  0  0  0  0
    1.7264   -1.8234    2.8710 H   0  0  0  0  0  0  0  0  0  0  0  0
    2.4523   -0.2072    2.8866 H   0  0  0  0  0  0  0  0  0  0  0  0
    4.4528   -1.2703    1.7590 H   0  0  0  0  0  0  0  0  0  0  0  0
    4.2790   -2.0928    0.1985 H   0  0  0  0  0  0  0  0  0  0  0  0
    3.6395   -2.8166    1.6828 H   0  0  0  0  0  0  0  0  0  0  0  0
    4.7202    0.4012    0.4793 H   0  0  0  0  0  0  0  0  0  0  0  0
    4.8139    2.6346   -0.4924 H   0  0  0  0  0  0  0  0  0  0  0  0
    2.7441    3.7230   -1.3026 H   0  0  0  0  0  0  0  0  0  0  0  0
    0.5945    2.5271   -1.2036 H   0  0  0  0  0  0  0  0  0  0  0  0
   -3.3705    4.0531   -2.1315 H   0  0  0  0  0  0  0  0  0  0  0  0
   -6.4441    3.0768   -0.6714 H   0  0  0  0  0  0  0  0  0  0  0  0
   -6.5181    1.0675    0.8248 H   0  0  0  0  0  0  0  0  0  0  0  0
   -4.3794   -0.1894    1.2393 H   0  0  0  0  0  0  0  0  0  0  0  0
   -1.5101   -1.5395   -1.4321 H   0  0  0  0  0  0  0  0  0  0  0  0
   -1.3066   -3.9719   -1.7032 H   0  0  0  0  0  0  0  0  0  0  0  0
    0.6936   -5.1444   -0.8426 H   0  0  0  0  0  0  0  0  0  0  0  0
    2.4409   -3.8970    0.3119 H   0  0  0  0  0  0  0  0  0  0  0  0
  2  1  1  0  0  0  0
  1 28  1  0  0  0  0
  1 29  1  0  0  0  0
  1 30  1  0  0  0  0
  2  3  1  0  0  0  0
  2  4  1  0  0  0  0
  2 27  1  0  0  0  0
  3 31  1  0  0  0  0
  3 32  1  0  0  0  0
  3 33  1  0  0  0  0
  4  5  2  0  0  0  0
  4  9  1  0  0  0  0
  5  6  1  0  0  0  0
  5 34  1  0  0  0  0
  6  7  2  0  0  0  0
  6 35  1  0  0  0  0
  7  8  1  0  0  0  0
  7 36  1  0  0  0  0
  8  9  2  0  0  0  0
  8 37  1  0  0  0  0
  9 10  1  0  0  0  0
 10 11  1  0  0  0  0
 10 22  1  0  0  0  0
 11 12  1  0  0  0  0
 11 20  1  0  0  0  0
 12 13  1  0  0  0  0
 13 14  1  0  0  0  0
 13 19  1  0  0  0  0
 14 15  1  0  0  0  0
 14 16  1  0  0  0  0
 15 38  1  0  0  0  0
 16 17  1  0  0  0  0
 16 39  1  0  0  0  0
 17 18  1  0  0  0  0
 17 40  1  0  0  0  0
 18 19  1  0  0  0  0
 18 41  1  0  0  0  0
 19 20  1  0  0  0  0
 20 21  2  0  0  0  0
 22 23  2  0  0  0  0
 22 27  1  0  0  0  0
 23 24  1  0  0  0  0
 23 42  1  0  0  0  0
 24 25  2  0  0  0  0
 24 43  1  0  0  0  0
 25 26  1  0  0  0  0
 25 44  1  0  0  0  0
 26 27  2  0  0  0  0
 26 45  1  0  0  0  0
M  END
> <total energy / Eh>
    -74.988019332400

> <gradient norm / Eh/a0>
      0.000645691330

$$$$
