L61
  xtb     12202207443D
xtb: 6.4.1 (afa7bdf)
 36 39  0     0  0            999 V2000
    3.9032   -0.7530    2.2176 C   0  0  0  0  0  0  0  0  0  0  0  0
    2.8315   -0.4871    1.2123 C   0  0  0  0  0  0  0  0  0  0  0  0
    1.4747   -0.4598    1.4416 C   0  0  0  0  0  0  0  0  0  0  0  0
    0.7442   -0.7702    2.6957 C   0  0  0  0  0  0  0  0  0  0  0  0
    0.8208   -0.1645    0.2668 N   0  0  0  0  0  0  0  0  0  0  0  0
   -0.5255   -0.0949   -0.0184 N   0  0  0  0  0  0  0  0  0  0  0  0
   -1.2025   -0.1257   -1.8686 Cu  0  0  0  0  0  2  0  0  0  0  0  0
   -2.9974    0.2148   -1.0781 N   0  0  0  0  0  0  0  0  0  0  0  0
   -4.2301    0.1986   -1.5696 C   0  0  0  0  0  3  0  0  0  0  0  0
   -4.3078   -0.1072   -2.8780 O   0  0  0  0  0  0  0  0  0  0  0  0
   -5.3442    0.4816   -0.7828 C   0  0  0  0  0  3  0  0  0  0  0  0
   -5.1423    0.7976    0.5498 C   0  0  0  0  0  3  0  0  0  0  0  0
   -3.8530    0.8200    1.0545 C   0  0  0  0  0  3  0  0  0  0  0  0
   -2.7930    0.5130    0.2141 C   0  0  0  0  0  3  0  0  0  0  0  0
   -1.3797    0.5683    0.7587 C   0  0  0  0  0  0  0  0  0  0  0  0
   -1.1782    1.1714    1.8095 O   0  0  0  0  0  0  0  0  0  0  0  0
    1.7403   -0.0421   -0.7331 C   0  0  0  0  0  0  0  0  0  0  0  0
    1.5615    0.1808   -2.0910 C   0  0  0  0  0  0  0  0  0  0  0  0
    2.6756    0.2450   -2.8977 C   0  0  0  0  0  0  0  0  0  0  0  0
    3.9553    0.0990   -2.3507 C   0  0  0  0  0  0  0  0  0  0  0  0
    4.1444   -0.1342   -1.0066 C   0  0  0  0  0  0  0  0  0  0  0  0
    3.0317   -0.2189   -0.1695 C   0  0  0  0  0  0  0  0  0  0  0  0
    4.0675    0.1191    2.8521 H   0  0  0  0  0  0  0  0  0  0  0  0
    4.8365   -0.9879    1.7122 H   0  0  0  0  0  0  0  0  0  0  0  0
    3.6385   -1.5920    2.8598 H   0  0  0  0  0  0  0  0  0  0  0  0
    0.2283    0.1153    3.0656 H   0  0  0  0  0  0  0  0  0  0  0  0
   -0.0123   -1.5340    2.5096 H   0  0  0  0  0  0  0  0  0  0  0  0
    1.4366   -1.1277    3.4520 H   0  0  0  0  0  0  0  0  0  0  0  0
   -5.2243   -0.1006   -3.1819 H   0  0  0  0  0  0  0  0  0  0  0  0
   -6.3351    0.4582   -1.2112 H   0  0  0  0  0  0  0  0  0  0  0  0
   -5.9855    1.0251    1.1844 H   0  0  0  0  0  0  0  0  0  0  0  0
   -3.6376    1.0716    2.0800 H   0  0  0  0  0  0  0  0  0  0  0  0
    0.5388    0.2963   -2.5238 H   0  0  0  0  0  0  0  0  0  0  0  0
    2.5683    0.4129   -3.9590 H   0  0  0  0  0  0  0  0  0  0  0  0
    4.8096    0.1663   -3.0082 H   0  0  0  0  0  0  0  0  0  0  0  0
    5.1408   -0.2547   -0.6081 H   0  0  0  0  0  0  0  0  0  0  0  0
  1  2  1  0  0  0  0
  1 23  1  0  0  0  0
  1 24  1  0  0  0  0
  1 25  1  0  0  0  0
  2  3  2  0  0  0  0
  2 22  1  0  0  0  0
  3  4  1  0  0  0  0
  3  5  1  0  0  0  0
  4 26  1  0  0  0  0
  4 27  1  0  0  0  0
  4 28  1  0  0  0  0
  5  6  1  0  0  0  0
  5 17  1  0  0  0  0
  6  7  1  0  0  0  0
  6 15  1  0  0  0  0
  7  8  1  0  0  0  0
  8  9  1  0  0  0  0
  8 14  1  0  0  0  0
  9 10  1  0  0  0  0
  9 11  1  0  0  0  0
 10 29  1  0  0  0  0
 11 12  1  0  0  0  0
 11 30  1  0  0  0  0
 12 13  1  0  0  0  0
 12 31  1  0  0  0  0
 13 14  1  0  0  0  0
 13 32  1  0  0  0  0
 14 15  1  0  0  0  0
 15 16  2  0  0  0  0
 17 18  2  0  0  0  0
 17 22  1  0  0  0  0
 18 19  1  0  0  0  0
 18 33  1  0  0  0  0
 19 20  2  0  0  0  0
 19 34  1  0  0  0  0
 20 21  1  0  0  0  0
 20 35  1  0  0  0  0
 21 22  2  0  0  0  0
 21 36  1  0  0  0  0
M  END
> <total energy / Eh>
    -62.232958276117

> <gradient norm / Eh/a0>
      0.000555131362

$$$$
