L54
  xtb     12202207443D
xtb: 6.4.1 (afa7bdf)
 36 40  0     0  0            999 V2000
    1.1724   -1.4993   -1.4555 O   0  0  0  0  0  0  0  0  0  0  0  0
    1.4036   -0.5852   -0.6689 C   0  0  0  0  0  0  0  0  0  0  0  0
    2.8414   -0.1556   -0.4644 C   0  0  0  0  0  3  0  0  0  0  0  0
    3.8543   -0.9591   -0.9692 C   0  0  0  0  0  3  0  0  0  0  0  0
    5.1719   -0.5645   -0.8119 C   0  0  0  0  0  3  0  0  0  0  0  0
    5.4510    0.6279   -0.1655 C   0  0  0  0  0  3  0  0  0  0  0  0
    4.3829    1.3880    0.3045 C   0  0  0  0  0  3  0  0  0  0  0  0
    4.5356    2.5665    0.9371 O   0  0  0  0  0  0  0  0  0  0  0  0
    3.1220    1.0002    0.1582 N   0  0  0  0  0  0  0  0  0  0  0  0
    1.3826    1.7975    0.6683 Cu  0  0  0  0  0  2  0  0  0  0  0  0
    0.5563    0.1113    0.0873 N   0  0  0  0  0  0  0  0  0  0  0  0
   -0.8046   -0.1026    0.0556 N   0  0  0  0  0  0  0  0  0  0  0  0
   -1.6609    0.9481    0.2522 C   0  0  0  0  0  0  0  0  0  0  0  0
   -1.3753    2.2907    0.4631 C   0  0  0  0  0  0  0  0  0  0  0  0
   -2.4229    3.1677    0.6519 C   0  0  0  0  0  0  0  0  0  0  0  0
   -3.7433    2.7185    0.6204 C   0  0  0  0  0  0  0  0  0  0  0  0
   -4.0404    1.3840    0.4210 C   0  0  0  0  0  0  0  0  0  0  0  0
   -2.9997    0.4833    0.2417 C   0  0  0  0  0  0  0  0  0  0  0  0
   -2.9204   -0.9347    0.0557 C   0  0  0  0  0  0  0  0  0  0  0  0
   -3.8856   -1.9320   -0.0007 C   0  0  0  0  0  0  0  0  0  0  0  0
   -3.4774   -3.2420   -0.1373 C   0  0  0  0  0  0  0  0  0  0  0  0
   -2.1222   -3.5603   -0.2088 C   0  0  0  0  0  0  0  0  0  0  0  0
   -1.1423   -2.5898   -0.1525 C   0  0  0  0  0  0  0  0  0  0  0  0
   -1.5428   -1.2636   -0.0402 C   0  0  0  0  0  0  0  0  0  0  0  0
    3.5787   -1.8703   -1.4744 H   0  0  0  0  0  0  0  0  0  0  0  0
    5.9779   -1.1755   -1.1890 H   0  0  0  0  0  0  0  0  0  0  0  0
    6.4662    0.9694   -0.0281 H   0  0  0  0  0  0  0  0  0  0  0  0
    5.4692    2.8007    1.0129 H   0  0  0  0  0  0  0  0  0  0  0  0
   -0.3226    2.6536    0.4876 H   0  0  0  0  0  0  0  0  0  0  0  0
   -2.2230    4.2152    0.8219 H   0  0  0  0  0  0  0  0  0  0  0  0
   -4.5417    3.4315    0.7613 H   0  0  0  0  0  0  0  0  0  0  0  0
   -5.0649    1.0436    0.4093 H   0  0  0  0  0  0  0  0  0  0  0  0
   -4.9333   -1.6788    0.0677 H   0  0  0  0  0  0  0  0  0  0  0  0
   -4.2114   -4.0333   -0.1830 H   0  0  0  0  0  0  0  0  0  0  0  0
   -1.8297   -4.5957   -0.3056 H   0  0  0  0  0  0  0  0  0  0  0  0
   -0.1016   -2.8546   -0.2223 H   0  0  0  0  0  0  0  0  0  0  0  0
  1  2  2  0  0  0  0
  2  3  1  0  0  0  0
  2 11  1  0  0  0  0
  3  4  1  0  0  0  0
  3  9  1  0  0  0  0
  4  5  1  0  0  0  0
  4 25  1  0  0  0  0
  5  6  1  0  0  0  0
  5 26  1  0  0  0  0
  6  7  1  0  0  0  0
  6 27  1  0  0  0  0
  7  8  1  0  0  0  0
  7  9  1  0  0  0  0
  8 28  1  0  0  0  0
  9 10  1  0  0  0  0
 10 11  1  0  0  0  0
 11 12  1  0  0  0  0
 12 13  1  0  0  0  0
 12 24  1  0  0  0  0
 13 14  2  0  0  0  0
 13 18  1  0  0  0  0
 14 15  1  0  0  0  0
 14 29  1  0  0  0  0
 15 16  2  0  0  0  0
 15 30  1  0  0  0  0
 16 17  1  0  0  0  0
 16 31  1  0  0  0  0
 17 18  2  0  0  0  0
 17 32  1  0  0  0  0
 18 19  1  0  0  0  0
 19 20  2  0  0  0  0
 19 24  1  0  0  0  0
 20 21  1  0  0  0  0
 20 33  1  0  0  0  0
 21 22  2  0  0  0  0
 21 34  1  0  0  0  0
 22 23  1  0  0  0  0
 22 35  1  0  0  0  0
 23 24  2  0  0  0  0
 23 36  1  0  0  0  0
M  END
> <total energy / Eh>
    -65.495722719926

> <gradient norm / Eh/a0>
      0.000463282562

$$$$
