L23
  xtb     12202207433D
xtb: 6.4.1 (afa7bdf)
 35 38  0     0  0            999 V2000
    0.5793   -1.8890    2.2484 C   0  0  0  0  0  0  0  0  0  0  0  0
    1.5179   -1.0495    1.4429 C   0  0  0  0  0  0  0  0  0  0  0  0
    2.8922   -1.1206    1.7220 C   0  0  0  0  0  0  0  0  0  0  0  0
    3.8084   -0.3365    1.0819 C   0  0  0  0  0  0  0  0  0  0  0  0
    3.3811    0.6226    0.1438 C   0  0  0  0  0  0  0  0  0  0  0  0
    4.2891    1.4940   -0.4918 C   0  0  0  0  0  0  0  0  0  0  0  0
    3.8625    2.4408   -1.3799 C   0  0  0  0  0  0  0  0  0  0  0  0
    2.4944    2.5672   -1.6600 C   0  0  0  0  0  0  0  0  0  0  0  0
    1.6007    1.7212   -1.0665 C   0  0  0  0  0  0  0  0  0  0  0  0
    1.9973    0.7181   -0.1617 C   0  0  0  0  0  0  0  0  0  0  0  0
    1.0687   -0.1812    0.4543 C   0  0  0  0  0  0  0  0  0  0  0  0
   -0.2687   -0.0753    0.0953 N   0  0  0  0  0  0  0  0  0  0  0  0
   -1.2214    1.4545   -0.5787 Cu  0  0  0  0  0  2  0  0  0  0  0  0
   -2.8947    0.4465   -0.5806 N   0  0  0  0  0  0  0  0  0  0  0  0
   -4.1818    0.7200   -0.7748 C   0  0  0  0  0  3  0  0  0  0  0  0
   -4.5227    1.9930   -1.0030 O   0  0  0  0  0  0  0  0  0  0  0  0
   -5.1631   -0.2692   -0.7491 C   0  0  0  0  0  3  0  0  0  0  0  0
   -4.7682   -1.5730   -0.5206 C   0  0  0  0  0  3  0  0  0  0  0  0
   -3.4241   -1.8540   -0.3226 C   0  0  0  0  0  3  0  0  0  0  0  0
   -2.5025   -0.8211   -0.3518 C   0  0  0  0  0  3  0  0  0  0  0  0
   -1.0361   -1.1452   -0.1349 C   0  0  0  0  0  0  0  0  0  0  0  0
   -0.6941   -2.3212   -0.2154 O   0  0  0  0  0  0  0  0  0  0  0  0
   -0.3186   -1.3242    2.5021 H   0  0  0  0  0  0  0  0  0  0  0  0
    1.0591   -2.2290    3.1637 H   0  0  0  0  0  0  0  0  0  0  0  0
    0.2592   -2.7564    1.6682 H   0  0  0  0  0  0  0  0  0  0  0  0
    3.2223   -1.8274    2.4708 H   0  0  0  0  0  0  0  0  0  0  0  0
    4.8626   -0.4251    1.3001 H   0  0  0  0  0  0  0  0  0  0  0  0
    5.3394    1.4013   -0.2540 H   0  0  0  0  0  0  0  0  0  0  0  0
    4.5669    3.1029   -1.8613 H   0  0  0  0  0  0  0  0  0  0  0  0
    2.1565    3.3319   -2.3445 H   0  0  0  0  0  0  0  0  0  0  0  0
    0.5206    1.8415   -1.2962 H   0  0  0  0  0  0  0  0  0  0  0  0
   -3.7272    2.5526   -0.9859 H   0  0  0  0  0  0  0  0  0  0  0  0
   -6.1908    0.0084   -0.9109 H   0  0  0  0  0  0  0  0  0  0  0  0
   -5.5022   -2.3639   -0.4980 H   0  0  0  0  0  0  0  0  0  0  0  0
   -3.0614   -2.8545   -0.1512 H   0  0  0  0  0  0  0  0  0  0  0  0
  1  2  1  0  0  0  0
  1 23  1  0  0  0  0
  1 24  1  0  0  0  0
  1 25  1  0  0  0  0
  2  3  2  0  0  0  0
  2 11  1  0  0  0  0
  3  4  1  0  0  0  0
  3 26  1  0  0  0  0
  4  5  2  0  0  0  0
  4 27  1  0  0  0  0
  5  6  1  0  0  0  0
  5 10  1  0  0  0  0
  6  7  2  0  0  0  0
  6 28  1  0  0  0  0
  7  8  1  0  0  0  0
  7 29  1  0  0  0  0
  8  9  2  0  0  0  0
  8 30  1  0  0  0  0
  9 10  1  0  0  0  0
  9 31  1  0  0  0  0
 10 11  2  0  0  0  0
 11 12  1  0  0  0  0
 12 13  1  0  0  0  0
 12 21  1  0  0  0  0
 13 14  1  0  0  0  0
 14 15  1  0  0  0  0
 14 20  1  0  0  0  0
 15 16  1  0  0  0  0
 15 17  1  0  0  0  0
 16 32  1  0  0  0  0
 17 18  1  0  0  0  0
 17 33  1  0  0  0  0
 18 19  1  0  0  0  0
 18 34  1  0  0  0  0
 19 20  1  0  0  0  0
 19 35  1  0  0  0  0
 20 21  1  0  0  0  0
 21 22  2  0  0  0  0
M  END
> <total energy / Eh>
    -60.947578810270

> <gradient norm / Eh/a0>
      0.000553739160

$$$$
