L79
  xtb     12232207053D
xtb: 6.4.1 (afa7bdf)
 35 39  0     0  0            999 V2000
    0.7472   -2.3096   -0.4671 O   0  0  0  0  0  0  0  0  0  0  0  0
    1.2495   -1.2507   -0.1056 C   0  0  0  0  0  0  0  0  0  0  0  0
    2.7356   -1.2130    0.1674 C   0  0  0  0  0  3  0  0  0  0  0  0
    3.5240   -2.3007   -0.2159 C   0  0  0  0  0  3  0  0  0  0  0  0
    4.8217   -2.3509   -0.0075 N   0  0  0  0  0  2  0  0  0  0  0  0
    5.3859   -1.3184    0.6104 C   0  0  0  0  0  3  0  0  0  0  0  0
    6.7077   -1.3957    0.8043 O   0  0  0  0  0  0  0  0  0  0  0  0
    4.6217   -0.2244    1.0310 C   0  0  0  0  0  3  0  0  0  0  0  0
    3.3137   -0.1808    0.8029 N   0  0  0  0  0  0  0  0  0  0  0  0
    1.8244    1.0638    1.1841 Cu  0  0  0  0  0  2  0  0  0  0  0  0
    0.6793   -0.0597    0.0772 N   0  0  0  0  0  0  0  0  0  0  0  0
   -0.6705    0.1547   -0.0981 N   0  0  0  0  0  0  0  0  0  0  0  0
   -1.5624   -0.3359   -1.0301 C   0  0  0  0  0  0  0  0  0  0  0  0
   -1.3840   -1.2326   -2.0765 C   0  0  0  0  0  0  0  0  0  0  0  0
   -2.4738   -1.5239   -2.8725 C   0  0  0  0  0  0  0  0  0  0  0  0
   -3.7184   -0.9335   -2.6603 C   0  0  0  0  0  0  0  0  0  0  0  0
   -3.9011   -0.0253   -1.6388 C   0  0  0  0  0  0  0  0  0  0  0  0
   -2.8218    0.2846   -0.8212 C   0  0  0  0  0  0  0  0  0  0  0  0
   -2.6622    1.2017    0.2679 C   0  0  0  0  0  0  0  0  0  0  0  0
   -3.4992    2.1010    0.9134 C   0  0  0  0  0  0  0  0  0  0  0  0
   -2.9846    2.8835    1.9295 C   0  0  0  0  0  0  0  0  0  0  0  0
   -1.6454    2.7881    2.3078 C   0  0  0  0  0  0  0  0  0  0  0  0
   -0.8011    1.8918    1.6863 C   0  0  0  0  0  0  0  0  0  0  0  0
   -1.3072    1.0944    0.6685 C   0  0  0  0  0  0  0  0  0  0  0  0
    3.0666   -3.1472   -0.7092 H   0  0  0  0  0  0  0  0  0  0  0  0
    7.0449   -0.6128    1.2578 H   0  0  0  0  0  0  0  0  0  0  0  0
    5.0634    0.6155    1.5529 H   0  0  0  0  0  0  0  0  0  0  0  0
   -0.4349   -1.7105   -2.2475 H   0  0  0  0  0  0  0  0  0  0  0  0
   -2.3559   -2.2253   -3.6852 H   0  0  0  0  0  0  0  0  0  0  0  0
   -4.5438   -1.1879   -3.3088 H   0  0  0  0  0  0  0  0  0  0  0  0
   -4.8594    0.4448   -1.4749 H   0  0  0  0  0  0  0  0  0  0  0  0
   -4.5345    2.1895    0.6210 H   0  0  0  0  0  0  0  0  0  0  0  0
   -3.6229    3.5878    2.4410 H   0  0  0  0  0  0  0  0  0  0  0  0
   -1.2708    3.4205    3.0989 H   0  0  0  0  0  0  0  0  0  0  0  0
    0.2685    1.8169    1.9968 H   0  0  0  0  0  0  0  0  0  0  0  0
  1  2  2  0  0  0  0
  2  3  1  0  0  0  0
  2 11  1  0  0  0  0
  3  4  1  0  0  0  0
  3  9  1  0  0  0  0
  4  5  1  0  0  0  0
  4 25  1  0  0  0  0
  5  6  1  0  0  0  0
  6  7  1  0  0  0  0
  6  8  1  0  0  0  0
  7 26  1  0  0  0  0
  8  9  1  0  0  0  0
  8 27  1  0  0  0  0
  9 10  1  0  0  0  0
 10 11  1  0  0  0  0
 11 12  1  0  0  0  0
 12 13  1  0  0  0  0
 12 24  1  0  0  0  0
 13 14  2  0  0  0  0
 13 18  1  0  0  0  0
 14 15  1  0  0  0  0
 14 28  1  0  0  0  0
 15 16  2  0  0  0  0
 15 29  1  0  0  0  0
 16 17  1  0  0  0  0
 16 30  1  0  0  0  0
 17 18  2  0  0  0  0
 17 31  1  0  0  0  0
 18 19  1  0  0  0  0
 19 20  2  0  0  0  0
 19 24  1  0  0  0  0
 20 21  1  0  0  0  0
 20 32  1  0  0  0  0
 21 22  2  0  0  0  0
 21 33  1  0  0  0  0
 22 23  1  0  0  0  0
 22 34  1  0  0  0  0
 23 24  2  0  0  0  0
 23 35  1  0  0  0  0
M  END
> <total energy / Eh>
    -65.754293342534

> <gradient norm / Eh/a0>
      0.000956257990

$$$$
