L99
  xtb     03142303423D
xtb: 6.4.1 (afa7bdf)
 41 45  0     0  0            999 V2000
    0.2920   -5.1749   -0.3887 C   0  0  0  0  0  0  0  0  0  0  0  0
    0.9694   -3.8427   -0.2688 C   0  0  0  0  0  0  0  0  0  0  0  0
    2.3656   -3.7806   -0.2132 C   0  0  0  0  0  0  0  0  0  0  0  0
    3.0275   -2.5771   -0.1000 C   0  0  0  0  0  0  0  0  0  0  0  0
    2.2821   -1.4077   -0.0291 C   0  0  0  0  0  0  0  0  0  0  0  0
    2.6431   -0.0229    0.0304 C   0  0  0  0  0  0  0  0  0  0  0  0
    3.8431    0.6748    0.0508 C   0  0  0  0  0  0  0  0  0  0  0  0
    3.8159    2.0545    0.0627 C   0  0  0  0  0  0  0  0  0  0  0  0
    2.6131    2.7730    0.0484 C   0  0  0  0  0  0  0  0  0  0  0  0
    2.6464    4.2719    0.0393 C   0  0  0  0  0  0  0  0  0  0  0  0
    1.4149    2.0843    0.0428 C   0  0  0  0  0  0  0  0  0  0  0  0
    1.4245    0.6960    0.0365 C   0  0  0  0  0  0  0  0  0  0  0  0
    0.3690   -0.1802    0.0129 N   0  0  0  0  0  0  0  0  0  0  0  0
   -0.9145    0.3077   -0.0239 N   0  0  0  0  0  0  0  0  0  0  0  0
   -1.3465    2.2071   -0.3348 Cu  0  0  0  0  0  2  0  0  0  0  0  0
   -3.2424    1.7061   -0.0715 N   0  0  0  0  0  0  0  0  0  0  0  0
   -4.4064    2.3404   -0.1797 C   0  0  0  0  0  3  0  0  0  0  0  0
   -4.3316    3.6195   -0.5831 O   0  0  0  0  0  0  0  0  0  0  0  0
   -5.6003    1.6793    0.1176 C   0  0  0  0  0  3  0  0  0  0  0  0
   -5.6086    0.4232    0.5288 N   0  0  0  0  0  2  0  0  0  0  0  0
   -4.4489   -0.1946    0.6513 C   0  0  0  0  0  3  0  0  0  0  0  0
   -3.2383    0.4261    0.3424 C   0  0  0  0  0  3  0  0  0  0  0  0
   -1.9483   -0.3326    0.5234 C   0  0  0  0  0  0  0  0  0  0  0  0
   -1.9794   -1.4093    1.1131 O   0  0  0  0  0  0  0  0  0  0  0  0
    0.8653   -1.4675   -0.0560 C   0  0  0  0  0  0  0  0  0  0  0  0
    0.2131   -2.6844   -0.2021 C   0  0  0  0  0  0  0  0  0  0  0  0
    0.2518   -5.6590    0.5877 H   0  0  0  0  0  0  0  0  0  0  0  0
   -0.7268   -5.0606   -0.7501 H   0  0  0  0  0  0  0  0  0  0  0  0
    0.8388   -5.8296   -1.0651 H   0  0  0  0  0  0  0  0  0  0  0  0
    2.9315   -4.6995   -0.2697 H   0  0  0  0  0  0  0  0  0  0  0  0
    4.1064   -2.5372   -0.0740 H   0  0  0  0  0  0  0  0  0  0  0  0
    4.7833    0.1446    0.0528 H   0  0  0  0  0  0  0  0  0  0  0  0
    4.7432    2.6080    0.0775 H   0  0  0  0  0  0  0  0  0  0  0  0
    3.1452    4.6327   -0.8597 H   0  0  0  0  0  0  0  0  0  0  0  0
    1.6423    4.6890    0.0686 H   0  0  0  0  0  0  0  0  0  0  0  0
    3.2033    4.6443    0.8981 H   0  0  0  0  0  0  0  0  0  0  0  0
    0.4511    2.6475    0.0358 H   0  0  0  0  0  0  0  0  0  0  0  0
   -5.2101    4.0160   -0.6438 H   0  0  0  0  0  0  0  0  0  0  0  0
   -6.5607    2.1687    0.0247 H   0  0  0  0  0  0  0  0  0  0  0  0
   -4.4571   -1.2160    1.0005 H   0  0  0  0  0  0  0  0  0  0  0  0
   -0.8617   -2.7383   -0.2326 H   0  0  0  0  0  0  0  0  0  0  0  0
  1  2  1  0  0  0  0
  1 27  1  0  0  0  0
  1 28  1  0  0  0  0
  1 29  1  0  0  0  0
  2  3  2  0  0  0  0
  2 26  1  0  0  0  0
  3  4  1  0  0  0  0
  3 30  1  0  0  0  0
  4  5  2  0  0  0  0
  4 31  1  0  0  0  0
  5  6  1  0  0  0  0
  5 25  1  0  0  0  0
  6  7  2  0  0  0  0
  6 12  1  0  0  0  0
  7  8  1  0  0  0  0
  7 32  1  0  0  0  0
  8  9  2  0  0  0  0
  8 33  1  0  0  0  0
  9 10  1  0  0  0  0
  9 11  1  0  0  0  0
 10 34  1  0  0  0  0
 10 35  1  0  0  0  0
 10 36  1  0  0  0  0
 11 12  2  0  0  0  0
 11 37  1  0  0  0  0
 12 13  1  0  0  0  0
 13 14  1  0  0  0  0
 13 25  1  0  0  0  0
 14 15  1  0  0  0  0
 14 23  1  0  0  0  0
 15 16  1  0  0  0  0
 16 17  1  0  0  0  0
 16 22  1  0  0  0  0
 17 18  1  0  0  0  0
 17 19  1  0  0  0  0
 18 38  1  0  0  0  0
 19 20  1  0  0  0  0
 19 39  1  0  0  0  0
 20 21  1  0  0  0  0
 21 22  1  0  0  0  0
 21 40  1  0  0  0  0
 22 23  1  0  0  0  0
 23 24  2  0  0  0  0
 25 26  2  0  0  0  0
 26 41  1  0  0  0  0
M  END
> <total energy / Eh>
    -72.100595570022

> <gradient norm / Eh/a0>
      0.000577797928

$$$$
