L103
  xtb     03142303423D
xtb: 6.4.1 (afa7bdf)
 59 63  0     0  0            999 V2000
    4.9799    0.2069    1.9607 C   0  0  0  0  0  0  0  0  0  0  0  0
    4.8316    1.2161    0.8131 C   0  0  0  0  0  0  0  0  0  0  0  0
    6.1726    1.2979    0.0784 C   0  0  0  0  0  0  0  0  0  0  0  0
    4.5086    2.6047    1.3825 C   0  0  0  0  0  0  0  0  0  0  0  0
    3.6847    0.7842   -0.0888 C   0  0  0  0  0  0  0  0  0  0  0  0
    3.8525    0.5307   -1.4530 C   0  0  0  0  0  0  0  0  0  0  0  0
    2.7966    0.1462   -2.2553 C   0  0  0  0  0  0  0  0  0  0  0  0
    1.5340    0.0195   -1.6979 C   0  0  0  0  0  0  0  0  0  0  0  0
    0.2654   -0.3951   -2.2171 C   0  0  0  0  0  0  0  0  0  0  0  0
   -0.2000   -0.8120   -3.4554 C   0  0  0  0  0  0  0  0  0  0  0  0
   -1.5191   -1.1948   -3.5842 C   0  0  0  0  0  0  0  0  0  0  0  0
   -2.4174   -1.1860   -2.5057 C   0  0  0  0  0  0  0  0  0  0  0  0
   -3.8479   -1.6544   -2.7320 C   0  0  0  0  0  0  0  0  0  0  0  0
   -4.5130   -0.7469   -3.7765 C   0  0  0  0  0  0  0  0  0  0  0  0
   -3.8227   -3.1034   -3.2394 C   0  0  0  0  0  0  0  0  0  0  0  0
   -4.7005   -1.6157   -1.4596 C   0  0  0  0  0  0  0  0  0  0  0  0
   -1.9578   -0.7475   -1.2767 C   0  0  0  0  0  0  0  0  0  0  0  0
   -0.6341   -0.3560   -1.1282 C   0  0  0  0  0  0  0  0  0  0  0  0
    0.0180    0.0858   -0.0012 N   0  0  0  0  0  0  0  0  0  0  0  0
   -0.6607    0.1534    1.1890 N   0  0  0  0  0  0  0  0  0  0  0  0
   -2.4665   -0.6264    1.4470 Cu  0  0  0  0  0  2  0  0  0  0  0  0
   -2.3914    0.1066    3.2812 N   0  0  0  0  0  0  0  0  0  0  0  0
   -3.1799    0.0569    4.3508 C   0  0  0  0  0  3  0  0  0  0  0  0
   -4.2822   -0.6781    4.2312 O   0  0  0  0  0  0  0  0  0  0  0  0
   -2.9577    0.6670    5.4999 N   0  0  0  0  0  2  0  0  0  0  0  0
   -1.8549    1.4066    5.5861 C   0  0  0  0  0  3  0  0  0  0  0  0
   -0.9792    1.5440    4.5290 C   0  0  0  0  0  3  0  0  0  0  0  0
   -1.2752    0.8549    3.3535 C   0  0  0  0  0  3  0  0  0  0  0  0
   -0.3575    1.0051    2.1679 C   0  0  0  0  0  0  0  0  0  0  0  0
    0.5354    1.8492    2.2300 O   0  0  0  0  0  0  0  0  0  0  0  0
    1.3486    0.2933   -0.3198 C   0  0  0  0  0  0  0  0  0  0  0  0
    2.4243    0.6450    0.4786 C   0  0  0  0  0  0  0  0  0  0  0  0
    5.1711   -0.7886    1.5643 H   0  0  0  0  0  0  0  0  0  0  0  0
    4.0809    0.1665    2.5685 H   0  0  0  0  0  0  0  0  0  0  0  0
    5.8122    0.4888    2.6028 H   0  0  0  0  0  0  0  0  0  0  0  0
    6.9480    1.6110    0.7752 H   0  0  0  0  0  0  0  0  0  0  0  0
    6.4567    0.3296   -0.3279 H   0  0  0  0  0  0  0  0  0  0  0  0
    6.1342    2.0262   -0.7282 H   0  0  0  0  0  0  0  0  0  0  0  0
    4.4334    3.3306    0.5755 H   0  0  0  0  0  0  0  0  0  0  0  0
    5.2948    2.9249    2.0637 H   0  0  0  0  0  0  0  0  0  0  0  0
    3.5647    2.6002    1.9195 H   0  0  0  0  0  0  0  0  0  0  0  0
    4.8255    0.6264   -1.9059 H   0  0  0  0  0  0  0  0  0  0  0  0
    2.9509   -0.0578   -3.3047 H   0  0  0  0  0  0  0  0  0  0  0  0
    0.4629   -0.8424   -4.3069 H   0  0  0  0  0  0  0  0  0  0  0  0
   -1.8655   -1.5173   -4.5536 H   0  0  0  0  0  0  0  0  0  0  0  0
   -4.5231    0.2833   -3.4271 H   0  0  0  0  0  0  0  0  0  0  0  0
   -5.5394   -1.0637   -3.9493 H   0  0  0  0  0  0  0  0  0  0  0  0
   -3.9828   -0.7788   -4.7237 H   0  0  0  0  0  0  0  0  0  0  0  0
   -3.2929   -3.1841   -4.1839 H   0  0  0  0  0  0  0  0  0  0  0  0
   -4.8375   -3.4668   -3.3869 H   0  0  0  0  0  0  0  0  0  0  0  0
   -3.3267   -3.7462   -2.5153 H   0  0  0  0  0  0  0  0  0  0  0  0
   -4.7914   -0.6021   -1.0749 H   0  0  0  0  0  0  0  0  0  0  0  0
   -4.2846   -2.2574   -0.6849 H   0  0  0  0  0  0  0  0  0  0  0  0
   -5.7017   -1.9751   -1.6883 H   0  0  0  0  0  0  0  0  0  0  0  0
   -2.6342   -0.7079   -0.3955 H   0  0  0  0  0  0  0  0  0  0  0  0
   -4.7741   -0.6418    5.0649 H   0  0  0  0  0  0  0  0  0  0  0  0
   -1.6956    1.8913    6.5392 H   0  0  0  0  0  0  0  0  0  0  0  0
   -0.0901    2.1500    4.5709 H   0  0  0  0  0  0  0  0  0  0  0  0
    2.2701    0.8434    1.5238 H   0  0  0  0  0  0  0  0  0  0  0  0
  2  1  1  0  0  0  0
  1 33  1  0  0  0  0
  1 34  1  0  0  0  0
  1 35  1  0  0  0  0
  2  3  1  0  0  0  0
  2  4  1  0  0  0  0
  2  5  1  0  0  0  0
  3 36  1  0  0  0  0
  3 37  1  0  0  0  0
  3 38  1  0  0  0  0
  4 39  1  0  0  0  0
  4 40  1  0  0  0  0
  4 41  1  0  0  0  0
  5  6  2  0  0  0  0
  5 32  1  0  0  0  0
  6  7  1  0  0  0  0
  6 42  1  0  0  0  0
  7  8  2  0  0  0  0
  7 43  1  0  0  0  0
  8  9  1  0  0  0  0
  8 31  1  0  0  0  0
  9 10  2  0  0  0  0
  9 18  1  0  0  0  0
 10 11  1  0  0  0  0
 10 44  1  0  0  0  0
 11 12  2  0  0  0  0
 11 45  1  0  0  0  0
 12 13  1  0  0  0  0
 12 17  1  0  0  0  0
 13 14  1  0  0  0  0
 13 15  1  0  0  0  0
 13 16  1  0  0  0  0
 14 46  1  0  0  0  0
 14 47  1  0  0  0  0
 14 48  1  0  0  0  0
 15 49  1  0  0  0  0
 15 50  1  0  0  0  0
 15 51  1  0  0  0  0
 16 52  1  0  0  0  0
 16 53  1  0  0  0  0
 16 54  1  0  0  0  0
 17 18  2  0  0  0  0
 17 55  1  0  0  0  0
 18 19  1  0  0  0  0
 19 20  1  0  0  0  0
 19 31  1  0  0  0  0
 20 21  1  0  0  0  0
 20 29  1  0  0  0  0
 21 22  1  0  0  0  0
 22 23  1  0  0  0  0
 22 28  1  0  0  0  0
 23 24  1  0  0  0  0
 23 25  1  0  0  0  0
 24 56  1  0  0  0  0
 25 26  1  0  0  0  0
 26 27  1  0  0  0  0
 26 57  1  0  0  0  0
 27 28  1  0  0  0  0
 27 58  1  0  0  0  0
 28 29  1  0  0  0  0
 29 30  2  0  0  0  0
 31 32  2  0  0  0  0
 32 59  1  0  0  0  0
M  END
> <total energy / Eh>
    -91.112168912939

> <gradient norm / Eh/a0>
      0.000291703803

$$$$
