L45
  xtb     12202207443D
xtb: 6.4.1 (afa7bdf)
 38 41  0     0  0            999 V2000
    1.2178   -1.5991    1.3688 O   0  0  0  0  0  0  0  0  0  0  0  0
    0.1542   -1.4057    0.7829 C   0  0  0  0  0  0  0  0  0  0  0  0
   -0.8710   -2.5117    0.6934 C   0  0  0  0  0  3  0  0  0  0  0  0
   -0.5271   -3.7771    1.1424 C   0  0  0  0  0  3  0  0  0  0  0  0
   -1.4568   -4.8019    1.0715 C   0  0  0  0  0  3  0  0  0  0  0  0
   -2.7152   -4.5428    0.5603 C   0  0  0  0  0  3  0  0  0  0  0  0
   -2.9979   -3.2456    0.1394 C   0  0  0  0  0  3  0  0  0  0  0  0
   -4.2088   -2.9543   -0.3525 O   0  0  0  0  0  0  0  0  0  0  0  0
   -2.1048   -2.2625    0.2055 N   0  0  0  0  0  0  0  0  0  0  0  0
   -2.1824   -0.3105   -0.2303 Cu  0  0  0  0  0  2  0  0  0  0  0  0
   -0.2680   -0.3196    0.1462 N   0  0  0  0  0  0  0  0  0  0  0  0
    0.4709    0.8532    0.0863 N   0  0  0  0  0  0  0  0  0  0  0  0
    1.8619    0.8253   -0.0632 C   0  0  0  0  0  0  0  0  0  0  0  0
    2.6339    1.8236    0.5292 C   0  0  0  0  0  0  0  0  0  0  0  0
    4.0087    1.7969    0.4065 C   0  0  0  0  0  0  0  0  0  0  0  0
    4.6296    0.7732   -0.2913 C   0  0  0  0  0  0  0  0  0  0  0  0
    3.8643   -0.2235   -0.8724 C   0  0  0  0  0  0  0  0  0  0  0  0
    2.4873   -0.2001   -0.7671 C   0  0  0  0  0  0  0  0  0  0  0  0
   -0.2967    1.9604   -0.1717 C   0  0  0  0  0  0  0  0  0  0  0  0
    0.1643    3.0274   -0.9560 C   0  0  0  0  0  0  0  0  0  0  0  0
   -0.6889    4.0436   -1.3210 C   0  0  0  0  0  0  0  0  0  0  0  0
   -2.0241    4.0368   -0.9269 C   0  0  0  0  0  0  0  0  0  0  0  0
   -2.4841    3.0219   -0.1127 C   0  0  0  0  0  0  0  0  0  0  0  0
   -1.6454    1.9769    0.2685 C   0  0  0  0  0  0  0  0  0  0  0  0
    0.4671   -3.9189    1.5345 H   0  0  0  0  0  0  0  0  0  0  0  0
   -1.2044   -5.7961    1.4077 H   0  0  0  0  0  0  0  0  0  0  0  0
   -3.4772   -5.2989    0.4778 H   0  0  0  0  0  0  0  0  0  0  0  0
   -4.2384   -2.0150   -0.6040 H   0  0  0  0  0  0  0  0  0  0  0  0
    2.1478    2.6076    1.0918 H   0  0  0  0  0  0  0  0  0  0  0  0
    4.6010    2.5724    0.8704 H   0  0  0  0  0  0  0  0  0  0  0  0
    5.7058    0.7502   -0.3759 H   0  0  0  0  0  0  0  0  0  0  0  0
    4.3425   -1.0251   -1.4160 H   0  0  0  0  0  0  0  0  0  0  0  0
    1.8908   -0.9721   -1.2294 H   0  0  0  0  0  0  0  0  0  0  0  0
    1.1898    3.0311   -1.2922 H   0  0  0  0  0  0  0  0  0  0  0  0
   -0.3183    4.8502   -1.9363 H   0  0  0  0  0  0  0  0  0  0  0  0
   -2.6838    4.8337   -1.2329 H   0  0  0  0  0  0  0  0  0  0  0  0
   -3.5020    3.0393    0.2504 H   0  0  0  0  0  0  0  0  0  0  0  0
   -1.9423    1.3564    1.1182 H   0  0  0  0  0  0  0  0  0  0  0  0
  1  2  2  0  0  0  0
  2  3  1  0  0  0  0
  2 11  1  0  0  0  0
  3  4  1  0  0  0  0
  3  9  1  0  0  0  0
  4  5  1  0  0  0  0
  4 25  1  0  0  0  0
  5  6  1  0  0  0  0
  5 26  1  0  0  0  0
  6  7  1  0  0  0  0
  6 27  1  0  0  0  0
  7  8  1  0  0  0  0
  7  9  1  0  0  0  0
  8 28  1  0  0  0  0
  9 10  1  0  0  0  0
 10 11  1  0  0  0  0
 11 12  1  0  0  0  0
 12 13  1  0  0  0  0
 12 19  1  0  0  0  0
 13 14  2  0  0  0  0
 13 18  1  0  0  0  0
 14 15  1  0  0  0  0
 14 29  1  0  0  0  0
 15 16  2  0  0  0  0
 15 30  1  0  0  0  0
 16 17  1  0  0  0  0
 16 31  1  0  0  0  0
 17 18  2  0  0  0  0
 17 32  1  0  0  0  0
 18 33  1  0  0  0  0
 19 20  2  0  0  0  0
 19 24  1  0  0  0  0
 20 21  1  0  0  0  0
 20 34  1  0  0  0  0
 21 22  2  0  0  0  0
 21 35  1  0  0  0  0
 22 23  1  0  0  0  0
 22 36  1  0  0  0  0
 23 24  2  0  0  0  0
 23 37  1  0  0  0  0
 24 38  1  0  0  0  0
M  END
> <total energy / Eh>
    -66.485614151702

> <gradient norm / Eh/a0>
      0.000470713574

$$$$
