L69
  xtb     12232207063D
xtb: 6.4.1 (afa7bdf)
 36 40  0     0  0            999 V2000
    1.0673    1.7321   -1.1638 O   0  0  0  0  0  0  0  0  0  0  0  0
    1.3652    0.7727   -0.4596 C   0  0  0  0  0  0  0  0  0  0  0  0
    2.8301    0.4821   -0.2090 C   0  0  0  0  0  3  0  0  0  0  0  0
    3.7706    1.4293   -0.5869 C   0  0  0  0  0  3  0  0  0  0  0  0
    5.1149    1.1638   -0.3863 C   0  0  0  0  0  3  0  0  0  0  0  0
    5.4918   -0.0431    0.1772 C   0  0  0  0  0  3  0  0  0  0  0  0
    4.4928   -0.9514    0.5200 C   0  0  0  0  0  3  0  0  0  0  0  0
    4.7420   -2.1572    1.0620 O   0  0  0  0  0  0  0  0  0  0  0  0
    3.2054   -0.6882    0.3308 N   0  0  0  0  0  0  0  0  0  0  0  0
    1.5404   -1.7122    0.6388 Cu  0  0  0  0  0  2  0  0  0  0  0  0
    0.5592   -0.0854    0.1687 N   0  0  0  0  0  0  0  0  0  0  0  0
   -0.8108    0.0026    0.0464 N   0  0  0  0  0  0  0  0  0  0  0  0
   -1.6484    1.0963    0.0418 C   0  0  0  0  0  0  0  0  0  0  0  0
   -1.3706    2.4521    0.1716 C   0  0  0  0  0  0  0  0  0  0  0  0
   -2.4318    3.3340    0.1526 C   0  0  0  0  0  0  0  0  0  0  0  0
   -3.7500    2.8964    0.0261 C   0  0  0  0  0  0  0  0  0  0  0  0
   -4.0394    1.5525   -0.0756 C   0  0  0  0  0  0  0  0  0  0  0  0
   -2.9896    0.6416   -0.0600 C   0  0  0  0  0  0  0  0  0  0  0  0
   -2.9429   -0.7885   -0.0909 C   0  0  0  0  0  0  0  0  0  0  0  0
   -3.9037   -1.7888   -0.1563 C   0  0  0  0  0  0  0  0  0  0  0  0
   -3.4644   -3.0955   -0.1187 C   0  0  0  0  0  0  0  0  0  0  0  0
   -4.3775   -4.0958   -0.1806 F   0  0  0  0  0  0  0  0  0  0  0  0
   -2.1212   -3.4508   -0.0088 C   0  0  0  0  0  0  0  0  0  0  0  0
   -1.1621   -2.4617    0.0438 C   0  0  0  0  0  0  0  0  0  0  0  0
   -1.5695   -1.1347   -0.0045 C   0  0  0  0  0  0  0  0  0  0  0  0
    3.4212    2.3468   -1.0316 H   0  0  0  0  0  0  0  0  0  0  0  0
    5.8658    1.8870   -0.6661 H   0  0  0  0  0  0  0  0  0  0  0  0
    6.5305   -0.2850    0.3459 H   0  0  0  0  0  0  0  0  0  0  0  0
    5.6904   -2.2976    1.1775 H   0  0  0  0  0  0  0  0  0  0  0  0
   -0.3590    2.8088    0.2607 H   0  0  0  0  0  0  0  0  0  0  0  0
   -2.2362    4.3923    0.2434 H   0  0  0  0  0  0  0  0  0  0  0  0
   -4.5502    3.6217    0.0162 H   0  0  0  0  0  0  0  0  0  0  0  0
   -5.0586    1.2060   -0.1594 H   0  0  0  0  0  0  0  0  0  0  0  0
   -4.9559   -1.5665   -0.2290 H   0  0  0  0  0  0  0  0  0  0  0  0
   -1.8573   -4.4956    0.0288 H   0  0  0  0  0  0  0  0  0  0  0  0
   -0.0883   -2.7202    0.1352 H   0  0  0  0  0  0  0  0  0  0  0  0
  1  2  2  0  0  0  0
  2  3  1  0  0  0  0
  2 11  1  0  0  0  0
  3  4  1  0  0  0  0
  3  9  1  0  0  0  0
  4  5  1  0  0  0  0
  4 26  1  0  0  0  0
  5  6  1  0  0  0  0
  5 27  1  0  0  0  0
  6  7  1  0  0  0  0
  6 28  1  0  0  0  0
  7  8  1  0  0  0  0
  7  9  1  0  0  0  0
  8 29  1  0  0  0  0
  9 10  1  0  0  0  0
 10 11  1  0  0  0  0
 11 12  1  0  0  0  0
 12 13  1  0  0  0  0
 12 25  1  0  0  0  0
 13 14  2  0  0  0  0
 13 18  1  0  0  0  0
 14 15  1  0  0  0  0
 14 30  1  0  0  0  0
 15 16  2  0  0  0  0
 15 31  1  0  0  0  0
 16 17  1  0  0  0  0
 16 32  1  0  0  0  0
 17 18  2  0  0  0  0
 17 33  1  0  0  0  0
 18 19  1  0  0  0  0
 19 20  2  0  0  0  0
 19 25  1  0  0  0  0
 20 21  1  0  0  0  0
 20 34  1  0  0  0  0
 21 22  1  0  0  0  0
 21 23  2  0  0  0  0
 23 24  1  0  0  0  0
 23 35  1  0  0  0  0
 24 25  2  0  0  0  0
 24 36  1  0  0  0  0
M  END
> <total energy / Eh>
    -69.725498643108

> <gradient norm / Eh/a0>
      0.000238161248

$$$$
