L88
  xtb     01102303193D
xtb: 6.4.1 (afa7bdf)
 36 40  0     0  0            999 V2000
    0.8490    2.1200   -0.0095 O   0  0  0  0  0  0  0  0  0  0  0  0
    1.2962    0.9816    0.0541 C   0  0  0  0  0  0  0  0  0  0  0  0
    2.7922    0.7634    0.1121 C   0  0  0  0  0  3  0  0  0  0  0  0
    3.6201    1.8113    0.4718 C   0  0  0  0  0  3  0  0  0  0  0  0
    4.9919    1.6045    0.5149 C   0  0  0  0  0  3  0  0  0  0  0  0
    5.5019    0.3649    0.1833 C   0  0  0  0  0  3  0  0  0  0  0  0
    4.6091   -0.6400   -0.1888 C   0  0  0  0  0  3  0  0  0  0  0  0
    5.0688   -1.8438   -0.5361 O   0  0  0  0  0  0  0  0  0  0  0  0
    3.2944   -0.4408   -0.2185 N   0  0  0  0  0  0  0  0  0  0  0  0
    1.8201   -1.5815   -0.6207 Cu  0  0  0  0  0  2  0  0  0  0  0  0
    0.6401   -0.1840    0.1030 N   0  0  0  0  0  0  0  0  0  0  0  0
   -0.7406   -0.2078    0.0531 N   0  0  0  0  0  0  0  0  0  0  0  0
   -1.5998    0.6327    0.7263 C   0  0  0  0  0  0  0  0  0  0  0  0
   -1.3357    1.5947    1.6943 C   0  0  0  0  0  0  0  0  0  0  0  0
   -2.4078    2.2850    2.2199 C   0  0  0  0  0  0  0  0  0  0  0  0
   -3.7185    2.0232    1.8194 C   0  0  0  0  0  0  0  0  0  0  0  0
   -3.9908    1.0416    0.8916 C   0  0  0  0  0  0  0  0  0  0  0  0
   -2.9267    0.3314    0.3463 C   0  0  0  0  0  0  0  0  0  0  0  0
   -2.8551   -0.7628   -0.5710 C   0  0  0  0  0  0  0  0  0  0  0  0
   -3.8398   -1.4741   -1.2370 C   0  0  0  0  0  0  0  0  0  0  0  0
   -3.4725   -2.5327   -2.0413 C   0  0  0  0  0  0  0  0  0  0  0  0
   -2.1338   -2.8898   -2.1568 C   0  0  0  0  0  0  0  0  0  0  0  0
   -1.1401   -2.1891   -1.4978 C   0  0  0  0  0  0  0  0  0  0  0  0
    0.4794   -2.8370   -1.7126 Cl  0  0  0  0  0  0  0  0  0  0  0  0
   -1.4678   -1.0867   -0.7072 C   0  0  0  0  0  0  0  0  0  0  0  0
    3.1709    2.7625    0.7068 H   0  0  0  0  0  0  0  0  0  0  0  0
    5.6571    2.4037    0.8036 H   0  0  0  0  0  0  0  0  0  0  0  0
    6.5564    0.1482    0.1955 H   0  0  0  0  0  0  0  0  0  0  0  0
    4.3207   -2.4198   -0.7827 H   0  0  0  0  0  0  0  0  0  0  0  0
   -0.3319    1.8059    2.0212 H   0  0  0  0  0  0  0  0  0  0  0  0
   -2.2282    3.0448    2.9661 H   0  0  0  0  0  0  0  0  0  0  0  0
   -4.5272    2.5908    2.2554 H   0  0  0  0  0  0  0  0  0  0  0  0
   -5.0048    0.8181    0.5961 H   0  0  0  0  0  0  0  0  0  0  0  0
   -4.8759   -1.1992   -1.1169 H   0  0  0  0  0  0  0  0  0  0  0  0
   -4.2168   -3.1025   -2.5742 H   0  0  0  0  0  0  0  0  0  0  0  0
   -1.8549   -3.7367   -2.7638 H   0  0  0  0  0  0  0  0  0  0  0  0
  1  2  2  0  0  0  0
  2  3  1  0  0  0  0
  2 11  1  0  0  0  0
  3  4  1  0  0  0  0
  3  9  1  0  0  0  0
  4  5  1  0  0  0  0
  4 26  1  0  0  0  0
  5  6  1  0  0  0  0
  5 27  1  0  0  0  0
  6  7  1  0  0  0  0
  6 28  1  0  0  0  0
  7  8  1  0  0  0  0
  7  9  1  0  0  0  0
  8 29  1  0  0  0  0
  9 10  1  0  0  0  0
 10 11  1  0  0  0  0
 11 12  1  0  0  0  0
 12 13  1  0  0  0  0
 12 25  1  0  0  0  0
 13 14  2  0  0  0  0
 13 18  1  0  0  0  0
 14 15  1  0  0  0  0
 14 30  1  0  0  0  0
 15 16  2  0  0  0  0
 15 31  1  0  0  0  0
 16 17  1  0  0  0  0
 16 32  1  0  0  0  0
 17 18  2  0  0  0  0
 17 33  1  0  0  0  0
 18 19  1  0  0  0  0
 19 20  2  0  0  0  0
 19 25  1  0  0  0  0
 20 21  1  0  0  0  0
 20 34  1  0  0  0  0
 21 22  2  0  0  0  0
 21 35  1  0  0  0  0
 22 23  1  0  0  0  0
 22 36  1  0  0  0  0
 23 24  1  0  0  0  0
 23 25  2  0  0  0  0
M  END
> <total energy / Eh>
    -69.569894710413

> <gradient norm / Eh/a0>
      0.000255857724

$$$$
