L80
  xtb     01102303183D
xtb: 6.4.1 (afa7bdf)
 42 46  0     0  0            999 V2000
    0.5080   -2.7281    0.8270 C   0  0  0  0  0  0  0  0  0  0  0  0
    1.4322   -2.2941   -0.2722 C   0  0  0  0  0  0  0  0  0  0  0  0
    2.2623   -3.2145   -0.8896 C   0  0  0  0  0  0  0  0  0  0  0  0
    3.1741   -2.8615   -1.8822 C   0  0  0  0  0  0  0  0  0  0  0  0
    3.3050   -1.5499   -2.2818 C   0  0  0  0  0  0  0  0  0  0  0  0
    2.4839   -0.5974   -1.6914 C   0  0  0  0  0  0  0  0  0  0  0  0
    1.5302   -0.9719   -0.7147 C   0  0  0  0  0  0  0  0  0  0  0  0
    0.8782    0.1619   -0.2833 N   0  0  0  0  0  0  0  0  0  0  0  0
   -0.2353    0.1832    0.5472 N   0  0  0  0  0  0  0  0  0  0  0  0
   -0.6383    1.1028    2.1861 Cu  0  0  0  0  0  2  0  0  0  0  0  0
   -2.3860    0.2435    2.2252 N   0  0  0  0  0  0  0  0  0  0  0  0
   -3.4015    0.2458    3.0795 C   0  0  0  0  0  3  0  0  0  0  0  0
   -3.1659    0.9126    4.2234 O   0  0  0  0  0  0  0  0  0  0  0  0
   -4.6063   -0.3945    2.7977 C   0  0  0  0  0  3  0  0  0  0  0  0
   -4.7373   -1.0383    1.5798 C   0  0  0  0  0  3  0  0  0  0  0  0
   -3.6755   -1.0288    0.6897 C   0  0  0  0  0  3  0  0  0  0  0  0
   -2.5022   -0.3803    1.0437 C   0  0  0  0  0  3  0  0  0  0  0  0
   -1.3474   -0.3822    0.0609 C   0  0  0  0  0  0  0  0  0  0  0  0
   -1.5046   -0.8938   -1.0403 O   0  0  0  0  0  0  0  0  0  0  0  0
    1.3792    1.2585   -0.9449 C   0  0  0  0  0  0  0  0  0  0  0  0
    1.0734    2.6161   -0.8125 C   0  0  0  0  0  0  0  0  0  0  0  0
    0.0269    3.1339    0.1326 C   0  0  0  0  0  0  0  0  0  0  0  0
    1.7853    3.4975   -1.6088 C   0  0  0  0  0  0  0  0  0  0  0  0
    2.7696    3.0753   -2.5001 C   0  0  0  0  0  0  0  0  0  0  0  0
    3.0840    1.7391   -2.6185 C   0  0  0  0  0  0  0  0  0  0  0  0
    2.3909    0.8242   -1.8362 C   0  0  0  0  0  0  0  0  0  0  0  0
   -0.5160   -2.7914    0.4592 H   0  0  0  0  0  0  0  0  0  0  0  0
    0.7994   -3.7095    1.1959 H   0  0  0  0  0  0  0  0  0  0  0  0
    0.5267   -2.0188    1.6541 H   0  0  0  0  0  0  0  0  0  0  0  0
    2.2073   -4.2487   -0.5789 H   0  0  0  0  0  0  0  0  0  0  0  0
    3.7939   -3.6277   -2.3247 H   0  0  0  0  0  0  0  0  0  0  0  0
    4.0291   -1.2612   -3.0287 H   0  0  0  0  0  0  0  0  0  0  0  0
   -3.9289    0.8732    4.8139 H   0  0  0  0  0  0  0  0  0  0  0  0
   -5.4117   -0.3821    3.5170 H   0  0  0  0  0  0  0  0  0  0  0  0
   -5.6589   -1.5420    1.3312 H   0  0  0  0  0  0  0  0  0  0  0  0
   -3.7216   -1.5089   -0.2744 H   0  0  0  0  0  0  0  0  0  0  0  0
   -0.9704    2.8603   -0.2137 H   0  0  0  0  0  0  0  0  0  0  0  0
    0.1699    2.7106    1.1489 H   0  0  0  0  0  0  0  0  0  0  0  0
    0.0825    4.2178    0.2088 H   0  0  0  0  0  0  0  0  0  0  0  0
    1.5712    4.5546   -1.5323 H   0  0  0  0  0  0  0  0  0  0  0  0
    3.2919    3.8106   -3.0941 H   0  0  0  0  0  0  0  0  0  0  0  0
    3.8530    1.4045   -3.2980 H   0  0  0  0  0  0  0  0  0  0  0  0
  1  2  1  0  0  0  0
  1 27  1  0  0  0  0
  1 28  1  0  0  0  0
  1 29  1  0  0  0  0
  2  3  2  0  0  0  0
  2  7  1  0  0  0  0
  3  4  1  0  0  0  0
  3 30  1  0  0  0  0
  4  5  2  0  0  0  0
  4 31  1  0  0  0  0
  5  6  1  0  0  0  0
  5 32  1  0  0  0  0
  6  7  2  0  0  0  0
  6 26  1  0  0  0  0
  7  8  1  0  0  0  0
  8  9  1  0  0  0  0
  8 20  1  0  0  0  0
  9 10  1  0  0  0  0
  9 18  1  0  0  0  0
 10 11  1  0  0  0  0
 11 12  1  0  0  0  0
 11 17  1  0  0  0  0
 12 13  1  0  0  0  0
 12 14  1  0  0  0  0
 13 33  1  0  0  0  0
 14 15  1  0  0  0  0
 14 34  1  0  0  0  0
 15 16  1  0  0  0  0
 15 35  1  0  0  0  0
 16 17  1  0  0  0  0
 16 36  1  0  0  0  0
 17 18  1  0  0  0  0
 18 19  2  0  0  0  0
 20 21  2  0  0  0  0
 20 26  1  0  0  0  0
 21 22  1  0  0  0  0
 21 23  1  0  0  0  0
 22 37  1  0  0  0  0
 22 38  1  0  0  0  0
 22 39  1  0  0  0  0
 23 24  2  0  0  0  0
 23 40  1  0  0  0  0
 24 25  1  0  0  0  0
 24 41  1  0  0  0  0
 25 26  2  0  0  0  0
 25 42  1  0  0  0  0
M  END
> <total energy / Eh>
    -71.832190778620

> <gradient norm / Eh/a0>
      0.000228138468

$$$$
