L98
  xtb     03142303423D
xtb: 6.4.1 (afa7bdf)
 41 45  0     0  0            999 V2000
    4.9909    0.9097    2.4377 C   0  0  0  0  0  0  0  0  0  0  0  0
    3.6444    0.7601    1.7933 C   0  0  0  0  0  0  0  0  0  0  0  0
    3.3511   -0.3994    1.0699 C   0  0  0  0  0  0  0  0  0  0  0  0
    2.1412   -0.6136    0.4321 C   0  0  0  0  0  0  0  0  0  0  0  0
    1.9131   -1.8945   -0.3179 C   0  0  0  0  0  0  0  0  0  0  0  0
    1.1809    0.3967    0.5346 C   0  0  0  0  0  0  0  0  0  0  0  0
    1.4687    1.5847    1.2512 C   0  0  0  0  0  0  0  0  0  0  0  0
    2.6942    1.7593    1.8797 C   0  0  0  0  0  0  0  0  0  0  0  0
    0.3153    2.4275    1.1348 C   0  0  0  0  0  0  0  0  0  0  0  0
    0.0217    3.7073    1.5861 C   0  0  0  0  0  0  0  0  0  0  0  0
   -1.1949    4.2640    1.2481 C   0  0  0  0  0  0  0  0  0  0  0  0
   -2.1048    3.5667    0.4551 C   0  0  0  0  0  0  0  0  0  0  0  0
   -1.8355    2.2948   -0.0088 C   0  0  0  0  0  0  0  0  0  0  0  0
   -0.6265    1.7156    0.3560 C   0  0  0  0  0  0  0  0  0  0  0  0
   -0.0923    0.4951    0.0147 N   0  0  0  0  0  0  0  0  0  0  0  0
   -0.7383   -0.4887   -0.7053 N   0  0  0  0  0  0  0  0  0  0  0  0
   -0.1796   -1.5856   -2.2063 Cu  0  0  0  0  0  2  0  0  0  0  0  0
   -1.9870   -2.3008   -2.3215 N   0  0  0  0  0  0  0  0  0  0  0  0
   -2.5926   -3.2152   -3.0744 C   0  0  0  0  0  3  0  0  0  0  0  0
   -1.8772   -3.6649   -4.1183 O   0  0  0  0  0  0  0  0  0  0  0  0
   -3.8858   -3.6406   -2.7642 C   0  0  0  0  0  3  0  0  0  0  0  0
   -4.5318   -3.1711   -1.7103 N   0  0  0  0  0  2  0  0  0  0  0  0
   -3.9139   -2.2861   -0.9504 C   0  0  0  0  0  3  0  0  0  0  0  0
   -2.6309   -1.8231   -1.2398 C   0  0  0  0  0  3  0  0  0  0  0  0
   -1.9832   -0.8175   -0.3264 C   0  0  0  0  0  0  0  0  0  0  0  0
   -2.6082   -0.3999    0.6423 O   0  0  0  0  0  0  0  0  0  0  0  0
    4.9809    1.7103    3.1731 H   0  0  0  0  0  0  0  0  0  0  0  0
    5.2881   -0.0147    2.9297 H   0  0  0  0  0  0  0  0  0  0  0  0
    5.7452    1.1460    1.6861 H   0  0  0  0  0  0  0  0  0  0  0  0
    4.1107   -1.1667    1.0059 H   0  0  0  0  0  0  0  0  0  0  0  0
    1.1334   -2.4865    0.1624 H   0  0  0  0  0  0  0  0  0  0  0  0
    1.6065   -1.6831   -1.3688 H   0  0  0  0  0  0  0  0  0  0  0  0
    2.8253   -2.4862   -0.3559 H   0  0  0  0  0  0  0  0  0  0  0  0
    2.8969    2.6685    2.4256 H   0  0  0  0  0  0  0  0  0  0  0  0
    0.7358    4.2532    2.1847 H   0  0  0  0  0  0  0  0  0  0  0  0
   -1.4461    5.2568    1.5919 H   0  0  0  0  0  0  0  0  0  0  0  0
   -3.0423    4.0352    0.1932 H   0  0  0  0  0  0  0  0  0  0  0  0
   -2.5462    1.7724   -0.6284 H   0  0  0  0  0  0  0  0  0  0  0  0
   -2.3795   -4.3110   -4.6315 H   0  0  0  0  0  0  0  0  0  0  0  0
   -4.4098   -4.3631   -3.3761 H   0  0  0  0  0  0  0  0  0  0  0  0
   -4.4379   -1.9115   -0.0841 H   0  0  0  0  0  0  0  0  0  0  0  0
  1  2  1  0  0  0  0
  1 27  1  0  0  0  0
  1 28  1  0  0  0  0
  1 29  1  0  0  0  0
  2  3  2  0  0  0  0
  2  8  1  0  0  0  0
  3  4  1  0  0  0  0
  3 30  1  0  0  0  0
  4  5  1  0  0  0  0
  4  6  2  0  0  0  0
  5 31  1  0  0  0  0
  5 32  1  0  0  0  0
  5 33  1  0  0  0  0
  6  7  1  0  0  0  0
  6 15  1  0  0  0  0
  7  8  2  0  0  0  0
  7  9  1  0  0  0  0
  8 34  1  0  0  0  0
  9 10  2  0  0  0  0
  9 14  1  0  0  0  0
 10 11  1  0  0  0  0
 10 35  1  0  0  0  0
 11 12  2  0  0  0  0
 11 36  1  0  0  0  0
 12 13  1  0  0  0  0
 12 37  1  0  0  0  0
 13 14  2  0  0  0  0
 13 38  1  0  0  0  0
 14 15  1  0  0  0  0
 15 16  1  0  0  0  0
 16 17  1  0  0  0  0
 16 25  1  0  0  0  0
 17 18  1  0  0  0  0
 18 19  1  0  0  0  0
 18 24  1  0  0  0  0
 19 20  1  0  0  0  0
 19 21  1  0  0  0  0
 20 39  1  0  0  0  0
 21 22  1  0  0  0  0
 21 40  1  0  0  0  0
 22 23  1  0  0  0  0
 23 24  1  0  0  0  0
 23 41  1  0  0  0  0
 24 25  1  0  0  0  0
 25 26  2  0  0  0  0
M  END
> <total energy / Eh>
    -72.097103029556

> <gradient norm / Eh/a0>
      0.000486241375

$$$$
