L68
  xtb     12202207443D
xtb: 6.4.1 (afa7bdf)
 36 40  0     0  0            999 V2000
    1.3661   -1.7238    0.0699 O   0  0  0  0  0  0  0  0  0  0  0  0
    1.4553   -0.4987    0.0979 C   0  0  0  0  0  0  0  0  0  0  0  0
    2.8361    0.1202    0.1928 C   0  0  0  0  0  3  0  0  0  0  0  0
    3.8946   -0.7324    0.4625 C   0  0  0  0  0  3  0  0  0  0  0  0
    5.1872   -0.2278    0.5351 C   0  0  0  0  0  3  0  0  0  0  0  0
    6.2574   -0.9945    0.7938 O   0  0  0  0  0  0  0  0  0  0  0  0
    5.3685    1.1440    0.3254 C   0  0  0  0  0  3  0  0  0  0  0  0
    4.2645    1.9211    0.0537 C   0  0  0  0  0  3  0  0  0  0  0  0
    3.0268    1.4340   -0.0144 N   0  0  0  0  0  0  0  0  0  0  0  0
    1.2254    2.1367   -0.4404 Cu  0  0  0  0  0  2  0  0  0  0  0  0
    0.4866    0.4142    0.0792 N   0  0  0  0  0  0  0  0  0  0  0  0
   -0.8420    0.0635   -0.0267 N   0  0  0  0  0  0  0  0  0  0  0  0
   -1.5555   -0.9768    0.5286 C   0  0  0  0  0  0  0  0  0  0  0  0
   -1.1615   -1.9862    1.3987 C   0  0  0  0  0  0  0  0  0  0  0  0
   -2.1163   -2.8923    1.8143 C   0  0  0  0  0  0  0  0  0  0  0  0
   -3.4443   -2.8026    1.4000 C   0  0  0  0  0  0  0  0  0  0  0  0
   -3.8527   -1.7871    0.5611 C   0  0  0  0  0  0  0  0  0  0  0  0
   -2.9124   -0.8613    0.1271 C   0  0  0  0  0  0  0  0  0  0  0  0
   -3.0104    0.3183   -0.6801 C   0  0  0  0  0  0  0  0  0  0  0  0
   -4.0485    0.9708   -1.3308 C   0  0  0  0  0  0  0  0  0  0  0  0
   -3.7822    2.1498   -2.0003 C   0  0  0  0  0  0  0  0  0  0  0  0
   -2.4978    2.6946   -2.0241 C   0  0  0  0  0  0  0  0  0  0  0  0
   -1.4507    2.0551   -1.3946 C   0  0  0  0  0  0  0  0  0  0  0  0
   -1.7035    0.8636   -0.7286 C   0  0  0  0  0  0  0  0  0  0  0  0
    3.6744   -1.7814    0.6025 H   0  0  0  0  0  0  0  0  0  0  0  0
    5.9939   -1.9176    0.9094 H   0  0  0  0  0  0  0  0  0  0  0  0
    6.3576    1.5670    0.3738 H   0  0  0  0  0  0  0  0  0  0  0  0
    4.3693    2.9835   -0.1185 H   0  0  0  0  0  0  0  0  0  0  0  0
   -0.1390   -2.0776    1.7223 H   0  0  0  0  0  0  0  0  0  0  0  0
   -1.8269   -3.6891    2.4839 H   0  0  0  0  0  0  0  0  0  0  0  0
   -4.1592   -3.5331    1.7494 H   0  0  0  0  0  0  0  0  0  0  0  0
   -4.8832   -1.7023    0.2489 H   0  0  0  0  0  0  0  0  0  0  0  0
   -5.0483    0.5641   -1.3083 H   0  0  0  0  0  0  0  0  0  0  0  0
   -4.5793    2.6687   -2.5110 H   0  0  0  0  0  0  0  0  0  0  0  0
   -2.3260    3.6252   -2.5443 H   0  0  0  0  0  0  0  0  0  0  0  0
   -0.4243    2.4905   -1.4084 H   0  0  0  0  0  0  0  0  0  0  0  0
  1  2  2  0  0  0  0
  2  3  1  0  0  0  0
  2 11  1  0  0  0  0
  3  4  1  0  0  0  0
  3  9  1  0  0  0  0
  4  5  1  0  0  0  0
  4 25  1  0  0  0  0
  5  6  1  0  0  0  0
  5  7  1  0  0  0  0
  6 26  1  0  0  0  0
  7  8  1  0  0  0  0
  7 27  1  0  0  0  0
  8  9  1  0  0  0  0
  8 28  1  0  0  0  0
  9 10  1  0  0  0  0
 10 11  1  0  0  0  0
 11 12  1  0  0  0  0
 12 13  1  0  0  0  0
 12 24  1  0  0  0  0
 13 14  2  0  0  0  0
 13 18  1  0  0  0  0
 14 15  1  0  0  0  0
 14 29  1  0  0  0  0
 15 16  2  0  0  0  0
 15 30  1  0  0  0  0
 16 17  1  0  0  0  0
 16 31  1  0  0  0  0
 17 18  2  0  0  0  0
 17 32  1  0  0  0  0
 18 19  1  0  0  0  0
 19 20  2  0  0  0  0
 19 24  1  0  0  0  0
 20 21  1  0  0  0  0
 20 33  1  0  0  0  0
 21 22  2  0  0  0  0
 21 34  1  0  0  0  0
 22 23  1  0  0  0  0
 22 35  1  0  0  0  0
 23 24  2  0  0  0  0
 23 36  1  0  0  0  0
M  END
> <total energy / Eh>
    -65.495992293958

> <gradient norm / Eh/a0>
      0.000829881097

$$$$
