L74
  xtb     12232207063D
xtb: 6.4.1 (afa7bdf)
 45 51  0     0  0            999 V2000
    2.8108    1.4592   -1.4539 O   0  0  0  0  0  0  0  0  0  0  0  0
    2.9481    0.8793   -0.3823 C   0  0  0  0  0  0  0  0  0  0  0  0
    4.3484    0.6288    0.1351 C   0  0  0  0  0  3  0  0  0  0  0  0
    5.4100    1.2413   -0.5097 C   0  0  0  0  0  3  0  0  0  0  0  0
    6.7043    0.9969   -0.0738 C   0  0  0  0  0  3  0  0  0  0  0  0
    6.9124    0.1415    0.9908 C   0  0  0  0  0  3  0  0  0  0  0  0
    5.7990   -0.4482    1.5880 C   0  0  0  0  0  3  0  0  0  0  0  0
    5.9614   -1.2881    2.6155 O   0  0  0  0  0  0  0  0  0  0  0  0
    4.5593   -0.2088    1.1703 N   0  0  0  0  0  0  0  0  0  0  0  0
    2.7698   -0.8737    1.6562 Cu  0  0  0  0  0  2  0  0  0  0  0  0
    1.9998    0.4272    0.4439 N   0  0  0  0  0  0  0  0  0  0  0  0
    0.6663    0.5356    0.1070 N   0  0  0  0  0  0  0  0  0  0  0  0
   -0.0336    1.5834   -0.4330 C   0  0  0  0  0  0  0  0  0  0  0  0
    0.3958    2.8647   -0.7597 C   0  0  0  0  0  0  0  0  0  0  0  0
   -0.5349    3.7539   -1.2518 C   0  0  0  0  0  0  0  0  0  0  0  0
   -1.8743    3.3942   -1.3944 C   0  0  0  0  0  0  0  0  0  0  0  0
   -2.3113    2.1340   -1.0498 C   0  0  0  0  0  0  0  0  0  0  0  0
   -1.3976    1.2021   -0.5653 C   0  0  0  0  0  0  0  0  0  0  0  0
   -1.5071   -0.1379   -0.0685 C   0  0  0  0  0  0  0  0  0  0  0  0
   -2.5150   -1.0998    0.0948 C   0  0  0  0  0  0  0  0  0  0  0  0
   -2.1755   -2.3058    0.7434 C   0  0  0  0  0  0  0  0  0  0  0  0
   -0.9039   -2.6176    1.2124 C   0  0  0  0  0  0  0  0  0  0  0  0
    0.0952   -1.6950    1.0015 C   0  0  0  0  0  0  0  0  0  0  0  0
   -0.2025   -0.4906    0.3689 C   0  0  0  0  0  0  0  0  0  0  0  0
   -3.2431   -3.1459    0.8535 O   0  0  0  0  0  0  0  0  0  0  0  0
   -4.2845   -2.5116    0.2606 C   0  0  0  0  0  0  0  0  0  0  0  0
   -5.5646   -3.0193    0.1270 C   0  0  0  0  0  0  0  0  0  0  0  0
   -6.4929   -2.2389   -0.5350 C   0  0  0  0  0  0  0  0  0  0  0  0
   -6.1425   -0.9951   -1.0526 C   0  0  0  0  0  0  0  0  0  0  0  0
   -4.8651   -0.4910   -0.9137 C   0  0  0  0  0  0  0  0  0  0  0  0
   -3.9109   -1.2442   -0.2376 C   0  0  0  0  0  0  0  0  0  0  0  0
    5.1922    1.8906   -1.3425 H   0  0  0  0  0  0  0  0  0  0  0  0
    7.5439    1.4679   -0.5619 H   0  0  0  0  0  0  0  0  0  0  0  0
    7.8931   -0.0885    1.3708 H   0  0  0  0  0  0  0  0  0  0  0  0
    5.0948   -1.6077    2.9202 H   0  0  0  0  0  0  0  0  0  0  0  0
    1.4275    3.1505   -0.6461 H   0  0  0  0  0  0  0  0  0  0  0  0
   -0.2236    4.7525   -1.5203 H   0  0  0  0  0  0  0  0  0  0  0  0
   -2.5804    4.1202   -1.7703 H   0  0  0  0  0  0  0  0  0  0  0  0
   -3.3556    1.8859   -1.1361 H   0  0  0  0  0  0  0  0  0  0  0  0
   -0.7249   -3.5571    1.7087 H   0  0  0  0  0  0  0  0  0  0  0  0
    1.1283   -1.9014    1.3451 H   0  0  0  0  0  0  0  0  0  0  0  0
   -5.8131   -3.9911    0.5227 H   0  0  0  0  0  0  0  0  0  0  0  0
   -7.5015   -2.6030   -0.6604 H   0  0  0  0  0  0  0  0  0  0  0  0
   -6.8867   -0.4148   -1.5777 H   0  0  0  0  0  0  0  0  0  0  0  0
   -4.6157    0.4654   -1.3403 H   0  0  0  0  0  0  0  0  0  0  0  0
  1  2  2  0  0  0  0
  2  3  1  0  0  0  0
  2 11  1  0  0  0  0
  3  4  1  0  0  0  0
  3  9  1  0  0  0  0
  4  5  1  0  0  0  0
  4 32  1  0  0  0  0
  5  6  1  0  0  0  0
  5 33  1  0  0  0  0
  6  7  1  0  0  0  0
  6 34  1  0  0  0  0
  7  8  1  0  0  0  0
  7  9  1  0  0  0  0
  8 35  1  0  0  0  0
  9 10  1  0  0  0  0
 10 11  1  0  0  0  0
 11 12  1  0  0  0  0
 12 13  1  0  0  0  0
 12 24  1  0  0  0  0
 13 14  2  0  0  0  0
 13 18  1  0  0  0  0
 14 15  1  0  0  0  0
 14 36  1  0  0  0  0
 15 16  2  0  0  0  0
 15 37  1  0  0  0  0
 16 17  1  0  0  0  0
 16 38  1  0  0  0  0
 17 18  2  0  0  0  0
 17 39  1  0  0  0  0
 18 19  1  0  0  0  0
 19 20  2  0  0  0  0
 19 24  1  0  0  0  0
 20 21  1  0  0  0  0
 20 31  1  0  0  0  0
 21 22  2  0  0  0  0
 21 25  1  0  0  0  0
 22 23  1  0  0  0  0
 22 40  1  0  0  0  0
 23 24  2  0  0  0  0
 23 41  1  0  0  0  0
 25 26  1  0  0  0  0
 26 27  2  0  0  0  0
 26 31  1  0  0  0  0
 27 28  1  0  0  0  0
 27 42  1  0  0  0  0
 28 29  2  0  0  0  0
 28 43  1  0  0  0  0
 29 30  1  0  0  0  0
 29 44  1  0  0  0  0
 30 31  2  0  0  0  0
 30 45  1  0  0  0  0
M  END
> <total energy / Eh>
    -83.467257116787

> <gradient norm / Eh/a0>
      0.000689979785

$$$$
