L93
  xtb     01102303193D
xtb: 6.4.1 (afa7bdf)
 40 44  0     0  0            999 V2000
    5.2855    2.9869   -0.0299 C   0  0  0  0  0  0  0  0  0  0  0  0
    5.5455    1.6539   -0.4232 O   0  0  0  0  0  0  0  0  0  0  0  0
    4.5192    0.7918   -0.4849 C   0  0  0  0  0  3  0  0  0  0  0  0
    4.8273   -0.5217   -0.8522 C   0  0  0  0  0  3  0  0  0  0  0  0
    3.8068   -1.4555   -0.9189 C   0  0  0  0  0  3  0  0  0  0  0  0
    4.0136   -2.7439   -1.2485 O   0  0  0  0  0  0  0  0  0  0  0  0
    2.5399   -1.1500   -0.6527 N   0  0  0  0  0  0  0  0  0  0  0  0
    2.2278    0.1093   -0.3072 C   0  0  0  0  0  3  0  0  0  0  0  0
    3.1872    1.1000   -0.2097 C   0  0  0  0  0  3  0  0  0  0  0  0
    0.8009    0.4766    0.0480 C   0  0  0  0  0  0  0  0  0  0  0  0
    0.5895    1.5735    0.5600 O   0  0  0  0  0  0  0  0  0  0  0  0
   -0.0692   -0.4794   -0.2719 N   0  0  0  0  0  0  0  0  0  0  0  0
   -1.4109   -0.3589    0.0188 N   0  0  0  0  0  0  0  0  0  0  0  0
   -2.2632    0.7209   -0.0566 C   0  0  0  0  0  0  0  0  0  0  0  0
   -2.0427    2.0224   -0.4913 C   0  0  0  0  0  0  0  0  0  0  0  0
   -3.1083    2.8994   -0.4756 C   0  0  0  0  0  0  0  0  0  0  0  0
   -4.3782    2.5051   -0.0570 C   0  0  0  0  0  0  0  0  0  0  0  0
   -4.6154    1.2081    0.3469 C   0  0  0  0  0  0  0  0  0  0  0  0
   -3.5609    0.3038    0.3406 C   0  0  0  0  0  0  0  0  0  0  0  0
   -3.4766   -1.0953    0.6378 C   0  0  0  0  0  0  0  0  0  0  0  0
   -4.3855   -2.0619    1.0462 C   0  0  0  0  0  0  0  0  0  0  0  0
   -3.9527   -3.3652    1.1980 C   0  0  0  0  0  0  0  0  0  0  0  0
   -2.6293   -3.7233    0.9379 C   0  0  0  0  0  0  0  0  0  0  0  0
   -1.7077   -2.7760    0.5444 C   0  0  0  0  0  0  0  0  0  0  0  0
   -2.1276   -1.4602    0.4032 C   0  0  0  0  0  0  0  0  0  0  0  0
    0.8599   -2.1849   -0.5296 Cu  0  0  0  0  0  2  0  0  0  0  0  0
    4.8559    3.0267    0.9740 H   0  0  0  0  0  0  0  0  0  0  0  0
    6.2526    3.4863   -0.0333 H   0  0  0  0  0  0  0  0  0  0  0  0
    4.6138    3.4844   -0.7337 H   0  0  0  0  0  0  0  0  0  0  0  0
    5.8501   -0.7869   -1.0687 H   0  0  0  0  0  0  0  0  0  0  0  0
    4.9491   -2.9077   -1.4230 H   0  0  0  0  0  0  0  0  0  0  0  0
    2.8523    2.0793    0.0903 H   0  0  0  0  0  0  0  0  0  0  0  0
   -1.0668    2.3463   -0.8094 H   0  0  0  0  0  0  0  0  0  0  0  0
   -2.9551    3.9180   -0.8018 H   0  0  0  0  0  0  0  0  0  0  0  0
   -5.1841    3.2245   -0.0593 H   0  0  0  0  0  0  0  0  0  0  0  0
   -5.6006    0.8923    0.6569 H   0  0  0  0  0  0  0  0  0  0  0  0
   -5.4147   -1.7980    1.2373 H   0  0  0  0  0  0  0  0  0  0  0  0
   -4.6475   -4.1278    1.5164 H   0  0  0  0  0  0  0  0  0  0  0  0
   -2.3272   -4.7540    1.0502 H   0  0  0  0  0  0  0  0  0  0  0  0
   -0.6529   -3.0587    0.3313 H   0  0  0  0  0  0  0  0  0  0  0  0
  1  2  1  0  0  0  0
  1 27  1  0  0  0  0
  1 28  1  0  0  0  0
  1 29  1  0  0  0  0
  2  3  1  0  0  0  0
  3  4  1  0  0  0  0
  3  9  1  0  0  0  0
  4  5  1  0  0  0  0
  4 30  1  0  0  0  0
  5  6  1  0  0  0  0
  5  7  1  0  0  0  0
  6 31  1  0  0  0  0
  7  8  1  0  0  0  0
  7 26  1  0  0  0  0
  8  9  1  0  0  0  0
  8 10  1  0  0  0  0
  9 32  1  0  0  0  0
 10 11  2  0  0  0  0
 10 12  1  0  0  0  0
 12 13  1  0  0  0  0
 12 26  1  0  0  0  0
 13 14  1  0  0  0  0
 13 25  1  0  0  0  0
 14 15  2  0  0  0  0
 14 19  1  0  0  0  0
 15 16  1  0  0  0  0
 15 33  1  0  0  0  0
 16 17  2  0  0  0  0
 16 34  1  0  0  0  0
 17 18  1  0  0  0  0
 17 35  1  0  0  0  0
 18 19  2  0  0  0  0
 18 36  1  0  0  0  0
 19 20  1  0  0  0  0
 20 21  2  0  0  0  0
 20 25  1  0  0  0  0
 21 22  1  0  0  0  0
 21 37  1  0  0  0  0
 22 23  2  0  0  0  0
 22 38  1  0  0  0  0
 23 24  1  0  0  0  0
 23 39  1  0  0  0  0
 24 25  2  0  0  0  0
 24 40  1  0  0  0  0
M  END
> <total energy / Eh>
    -72.735195632062

> <gradient norm / Eh/a0>
      0.000688305999

$$$$
