L71
  xtb     12232207063D
xtb: 6.4.1 (afa7bdf)
 48 54  0     0  0            999 V2000
    1.2207   -2.1687    2.2211 O   0  0  0  0  0  0  0  0  0  0  0  0
    2.0231   -1.7001    1.4206 C   0  0  0  0  0  0  0  0  0  0  0  0
    3.4717   -2.1358    1.5070 C   0  0  0  0  0  3  0  0  0  0  0  0
    3.7876   -3.2529    2.2661 C   0  0  0  0  0  3  0  0  0  0  0  0
    5.1106   -3.6513    2.3622 C   0  0  0  0  0  3  0  0  0  0  0  0
    6.0884   -2.9204    1.7098 C   0  0  0  0  0  3  0  0  0  0  0  0
    5.6977   -1.8020    0.9769 C   0  0  0  0  0  3  0  0  0  0  0  0
    6.5619   -1.0127    0.3138 O   0  0  0  0  0  0  0  0  0  0  0  0
    4.4269   -1.4300    0.8821 N   0  0  0  0  0  0  0  0  0  0  0  0
    3.4992    0.0469   -0.0547 Cu  0  0  0  0  0  2  0  0  0  0  0  0
    1.8116   -0.8461    0.4181 N   0  0  0  0  0  0  0  0  0  0  0  0
    0.5628   -0.3297    0.1568 N   0  0  0  0  0  0  0  0  0  0  0  0
    0.4164    0.9737   -0.2289 C   0  0  0  0  0  0  0  0  0  0  0  0
    1.4216    1.9248   -0.4461 C   0  0  0  0  0  0  0  0  0  0  0  0
    1.0702    3.1815   -0.8321 C   0  0  0  0  0  0  0  0  0  0  0  0
   -0.2968    3.5644   -0.8907 C   0  0  0  0  0  0  0  0  0  0  0  0
   -0.6461    4.9040   -1.1405 C   0  0  0  0  0  0  0  0  0  0  0  0
   -1.9493    5.3193   -1.0765 C   0  0  0  0  0  0  0  0  0  0  0  0
   -2.9475    4.4107   -0.7107 C   0  0  0  0  0  0  0  0  0  0  0  0
   -2.6428    3.0914   -0.4968 C   0  0  0  0  0  0  0  0  0  0  0  0
   -1.3275    2.6141   -0.6440 C   0  0  0  0  0  0  0  0  0  0  0  0
   -0.9474    1.2549   -0.4567 C   0  0  0  0  0  0  0  0  0  0  0  0
   -1.6266    0.0042   -0.3310 C   0  0  0  0  0  0  0  0  0  0  0  0
   -2.9290   -0.4558   -0.6761 C   0  0  0  0  0  0  0  0  0  0  0  0
   -3.8502    0.2836   -1.4402 C   0  0  0  0  0  0  0  0  0  0  0  0
   -5.0945   -0.2143   -1.7283 C   0  0  0  0  0  0  0  0  0  0  0  0
   -5.4755   -1.4801   -1.2727 C   0  0  0  0  0  0  0  0  0  0  0  0
   -4.5692   -2.2590   -0.6043 C   0  0  0  0  0  0  0  0  0  0  0  0
   -3.2731   -1.7892   -0.3241 C   0  0  0  0  0  0  0  0  0  0  0  0
   -2.2971   -2.6555    0.2319 C   0  0  0  0  0  0  0  0  0  0  0  0
   -1.0001   -2.2710    0.3848 C   0  0  0  0  0  0  0  0  0  0  0  0
   -0.6638   -0.9368    0.1041 C   0  0  0  0  0  0  0  0  0  0  0  0
    2.9877   -3.7776    2.7626 H   0  0  0  0  0  0  0  0  0  0  0  0
    5.3819   -4.5222    2.9388 H   0  0  0  0  0  0  0  0  0  0  0  0
    7.1299   -3.1997    1.7653 H   0  0  0  0  0  0  0  0  0  0  0  0
    7.4692   -1.3267    0.4171 H   0  0  0  0  0  0  0  0  0  0  0  0
    2.4941    1.6404   -0.3311 H   0  0  0  0  0  0  0  0  0  0  0  0
    1.8224    3.9251   -1.0507 H   0  0  0  0  0  0  0  0  0  0  0  0
    0.1419    5.6106   -1.3614 H   0  0  0  0  0  0  0  0  0  0  0  0
   -2.2057    6.3507   -1.2693 H   0  0  0  0  0  0  0  0  0  0  0  0
   -3.9634    4.7562   -0.5856 H   0  0  0  0  0  0  0  0  0  0  0  0
   -3.4096    2.4133   -0.1587 H   0  0  0  0  0  0  0  0  0  0  0  0
   -3.5505    1.2354   -1.8484 H   0  0  0  0  0  0  0  0  0  0  0  0
   -5.7840    0.3690   -2.3218 H   0  0  0  0  0  0  0  0  0  0  0  0
   -6.4680   -1.8513   -1.4835 H   0  0  0  0  0  0  0  0  0  0  0  0
   -4.8301   -3.2634   -0.3007 H   0  0  0  0  0  0  0  0  0  0  0  0
   -2.5946   -3.6638    0.4812 H   0  0  0  0  0  0  0  0  0  0  0  0
   -0.2548   -2.9586    0.7452 H   0  0  0  0  0  0  0  0  0  0  0  0
  1  2  2  0  0  0  0
  2  3  1  0  0  0  0
  2 11  1  0  0  0  0
  3  4  1  0  0  0  0
  3  9  1  0  0  0  0
  4  5  1  0  0  0  0
  4 33  1  0  0  0  0
  5  6  1  0  0  0  0
  5 34  1  0  0  0  0
  6  7  1  0  0  0  0
  6 35  1  0  0  0  0
  7  8  1  0  0  0  0
  7  9  1  0  0  0  0
  8 36  1  0  0  0  0
  9 10  1  0  0  0  0
 10 11  1  0  0  0  0
 11 12  1  0  0  0  0
 12 13  1  0  0  0  0
 12 32  1  0  0  0  0
 13 14  2  0  0  0  0
 13 22  1  0  0  0  0
 14 15  1  0  0  0  0
 14 37  1  0  0  0  0
 15 16  2  0  0  0  0
 15 38  1  0  0  0  0
 16 17  1  0  0  0  0
 16 21  1  0  0  0  0
 17 18  2  0  0  0  0
 17 39  1  0  0  0  0
 18 19  1  0  0  0  0
 18 40  1  0  0  0  0
 19 20  2  0  0  0  0
 19 41  1  0  0  0  0
 20 21  1  0  0  0  0
 20 42  1  0  0  0  0
 21 22  2  0  0  0  0
 22 23  1  0  0  0  0
 23 24  2  0  0  0  0
 23 32  1  0  0  0  0
 24 25  1  0  0  0  0
 24 29  1  0  0  0  0
 25 26  2  0  0  0  0
 25 43  1  0  0  0  0
 26 27  1  0  0  0  0
 26 44  1  0  0  0  0
 27 28  2  0  0  0  0
 27 45  1  0  0  0  0
 28 29  1  0  0  0  0
 28 46  1  0  0  0  0
 29 30  2  0  0  0  0
 30 31  1  0  0  0  0
 30 47  1  0  0  0  0
 31 32  2  0  0  0  0
 31 48  1  0  0  0  0
M  END
> <total energy / Eh>
    -84.681770840768

> <gradient norm / Eh/a0>
      0.000698466817

$$$$
