L94
  xtb     01102303193D
xtb: 6.4.1 (afa7bdf)
 40 44  0     0  0            999 V2000
    6.8132    1.8280   -0.4889 C   0  0  0  0  0  0  0  0  0  0  0  0
    5.8598    1.4028    0.4583 O   0  0  0  0  0  0  0  0  0  0  0  0
    4.5870    1.2192    0.0419 C   0  0  0  0  0  3  0  0  0  0  0  0
    4.1011    1.4065   -1.2431 C   0  0  0  0  0  3  0  0  0  0  0  0
    2.7580    1.1740   -1.5082 C   0  0  0  0  0  3  0  0  0  0  0  0
    1.9160    0.7489   -0.5002 C   0  0  0  0  0  3  0  0  0  0  0  0
    2.3907    0.5728    0.7525 N   0  0  0  0  0  0  0  0  0  0  0  0
    3.6645    0.7958    1.0264 C   0  0  0  0  0  3  0  0  0  0  0  0
    4.0895    0.6148    2.2822 O   0  0  0  0  0  0  0  0  0  0  0  0
    0.8157   -0.0019    1.8101 Cu  0  0  0  0  0  2  0  0  0  0  0  0
   -0.1794   -0.1498    0.1476 N   0  0  0  0  0  0  0  0  0  0  0  0
   -1.5252   -0.4489    0.0643 N   0  0  0  0  0  0  0  0  0  0  0  0
   -2.3024   -0.8655   -0.9946 C   0  0  0  0  0  0  0  0  0  0  0  0
   -1.9757   -1.0997   -2.3250 C   0  0  0  0  0  0  0  0  0  0  0  0
   -2.9755   -1.5383   -3.1692 C   0  0  0  0  0  0  0  0  0  0  0  0
   -4.2749   -1.7623   -2.7162 C   0  0  0  0  0  0  0  0  0  0  0  0
   -4.6039   -1.5580   -1.3930 C   0  0  0  0  0  0  0  0  0  0  0  0
   -3.6173   -1.1154   -0.5206 C   0  0  0  0  0  0  0  0  0  0  0  0
   -3.6092   -0.8611    0.8890 C   0  0  0  0  0  0  0  0  0  0  0  0
   -4.5536   -0.9507    1.9021 C   0  0  0  0  0  0  0  0  0  0  0  0
   -4.1731   -0.6638    3.1993 C   0  0  0  0  0  0  0  0  0  0  0  0
   -2.8627   -0.2942    3.5045 C   0  0  0  0  0  0  0  0  0  0  0  0
   -1.9129   -0.1873    2.5105 C   0  0  0  0  0  0  0  0  0  0  0  0
   -2.2846   -0.4658    1.2020 C   0  0  0  0  0  0  0  0  0  0  0  0
    0.4543    0.5209   -0.8162 C   0  0  0  0  0  0  0  0  0  0  0  0
    0.0138    0.9319   -1.8851 O   0  0  0  0  0  0  0  0  0  0  0  0
    6.9251    1.1006   -1.2986 H   0  0  0  0  0  0  0  0  0  0  0  0
    6.5532    2.8049   -0.9076 H   0  0  0  0  0  0  0  0  0  0  0  0
    7.7508    1.9070    0.0578 H   0  0  0  0  0  0  0  0  0  0  0  0
    4.7527    1.7309   -2.0383 H   0  0  0  0  0  0  0  0  0  0  0  0
    2.3429    1.3187   -2.4925 H   0  0  0  0  0  0  0  0  0  0  0  0
    3.3457    0.3234    2.8361 H   0  0  0  0  0  0  0  0  0  0  0  0
   -0.9812   -0.9199   -2.6954 H   0  0  0  0  0  0  0  0  0  0  0  0
   -2.7430   -1.7173   -4.2089 H   0  0  0  0  0  0  0  0  0  0  0  0
   -5.0269   -2.1059   -3.4114 H   0  0  0  0  0  0  0  0  0  0  0  0
   -5.6053   -1.7416   -1.0325 H   0  0  0  0  0  0  0  0  0  0  0  0
   -5.5677   -1.2460    1.6789 H   0  0  0  0  0  0  0  0  0  0  0  0
   -4.8962   -0.7305    3.9982 H   0  0  0  0  0  0  0  0  0  0  0  0
   -2.5951   -0.0870    4.5301 H   0  0  0  0  0  0  0  0  0  0  0  0
   -0.8680    0.1102    2.7539 H   0  0  0  0  0  0  0  0  0  0  0  0
  1  2  1  0  0  0  0
  1 27  1  0  0  0  0
  1 28  1  0  0  0  0
  1 29  1  0  0  0  0
  2  3  1  0  0  0  0
  3  4  1  0  0  0  0
  3  8  1  0  0  0  0
  4  5  1  0  0  0  0
  4 30  1  0  0  0  0
  5  6  1  0  0  0  0
  5 31  1  0  0  0  0
  6  7  1  0  0  0  0
  6 25  1  0  0  0  0
  7  8  1  0  0  0  0
  7 10  1  0  0  0  0
  8  9  1  0  0  0  0
  9 32  1  0  0  0  0
 10 11  1  0  0  0  0
 11 12  1  0  0  0  0
 11 25  1  0  0  0  0
 12 13  1  0  0  0  0
 12 24  1  0  0  0  0
 13 14  2  0  0  0  0
 13 18  1  0  0  0  0
 14 15  1  0  0  0  0
 14 33  1  0  0  0  0
 15 16  2  0  0  0  0
 15 34  1  0  0  0  0
 16 17  1  0  0  0  0
 16 35  1  0  0  0  0
 17 18  2  0  0  0  0
 17 36  1  0  0  0  0
 18 19  1  0  0  0  0
 19 20  2  0  0  0  0
 19 24  1  0  0  0  0
 20 21  1  0  0  0  0
 20 37  1  0  0  0  0
 21 22  2  0  0  0  0
 21 38  1  0  0  0  0
 22 23  1  0  0  0  0
 22 39  1  0  0  0  0
 23 24  2  0  0  0  0
 23 40  1  0  0  0  0
 25 26  2  0  0  0  0
M  END
> <total energy / Eh>
    -72.728859565412

> <gradient norm / Eh/a0>
      0.000414691375

$$$$
