L58
  xtb     12202207443D
xtb: 6.4.1 (afa7bdf)
 40 44  0     0  0            999 V2000
    0.9658    0.7584    2.1184 O   0  0  0  0  0  0  0  0  0  0  0  0
    1.4952    0.3717    1.0789 C   0  0  0  0  0  0  0  0  0  0  0  0
    3.0040    0.4338    0.9717 C   0  0  0  0  0  3  0  0  0  0  0  0
    3.7089    1.1559    1.9198 C   0  0  0  0  0  3  0  0  0  0  0  0
    5.0935    1.2032    1.8483 C   0  0  0  0  0  3  0  0  0  0  0  0
    5.7448    0.5249    0.8366 C   0  0  0  0  0  3  0  0  0  0  0  0
    4.9730   -0.1910   -0.0775 C   0  0  0  0  0  3  0  0  0  0  0  0
    5.5692   -0.8675   -1.0652 O   0  0  0  0  0  0  0  0  0  0  0  0
    3.6460   -0.2337   -0.0068 N   0  0  0  0  0  0  0  0  0  0  0  0
    2.2249   -1.1638   -1.0360 Cu  0  0  0  0  0  2  0  0  0  0  0  0
    0.9302   -0.1003   -0.0304 N   0  0  0  0  0  0  0  0  0  0  0  0
   -0.4312   -0.2725   -0.1657 N   0  0  0  0  0  0  0  0  0  0  0  0
   -0.9034   -1.3512   -0.8602 C   0  0  0  0  0  0  0  0  0  0  0  0
   -0.2181   -2.4029   -1.4506 C   0  0  0  0  0  0  0  0  0  0  0  0
   -0.9393   -3.3669   -2.1199 C   0  0  0  0  0  0  0  0  0  0  0  0
   -2.3347   -3.2873   -2.1886 C   0  0  0  0  0  0  0  0  0  0  0  0
   -3.0274   -2.2436   -1.6159 C   0  0  0  0  0  0  0  0  0  0  0  0
   -2.3183   -1.2476   -0.9455 C   0  0  0  0  0  0  0  0  0  0  0  0
   -2.6593   -0.0351   -0.2916 C   0  0  0  0  0  0  0  0  0  0  0  0
   -1.4958    0.5346    0.1628 C   0  0  0  0  0  0  0  0  0  0  0  0
   -1.4086    1.8621    0.8263 C   0  0  0  0  0  0  0  0  0  0  0  0
   -2.8054    2.3132    1.2555 C   0  0  0  0  0  0  0  0  0  0  0  0
   -3.8255    2.0935    0.1399 C   0  0  0  0  0  0  0  0  0  0  0  0
   -4.0015    0.5985   -0.1266 C   0  0  0  0  0  0  0  0  0  0  0  0
    3.1517    1.6592    2.6931 H   0  0  0  0  0  0  0  0  0  0  0  0
    5.6609    1.7635    2.5758 H   0  0  0  0  0  0  0  0  0  0  0  0
    6.8163    0.5245    0.7309 H   0  0  0  0  0  0  0  0  0  0  0  0
    4.8980   -1.3063   -1.6148 H   0  0  0  0  0  0  0  0  0  0  0  0
    0.8947   -2.4727   -1.3900 H   0  0  0  0  0  0  0  0  0  0  0  0
   -0.4312   -4.1950   -2.5914 H   0  0  0  0  0  0  0  0  0  0  0  0
   -2.8714   -4.0654   -2.7111 H   0  0  0  0  0  0  0  0  0  0  0  0
   -4.1037   -2.1916   -1.6868 H   0  0  0  0  0  0  0  0  0  0  0  0
   -0.9757    2.5861    0.1245 H   0  0  0  0  0  0  0  0  0  0  0  0
   -0.7432    1.8090    1.6907 H   0  0  0  0  0  0  0  0  0  0  0  0
   -2.7752    3.3673    1.5363 H   0  0  0  0  0  0  0  0  0  0  0  0
   -3.1117    1.7398    2.1328 H   0  0  0  0  0  0  0  0  0  0  0  0
   -4.7842    2.5376    0.4157 H   0  0  0  0  0  0  0  0  0  0  0  0
   -3.4752    2.5844   -0.7711 H   0  0  0  0  0  0  0  0  0  0  0  0
   -4.5330    0.1352    0.7115 H   0  0  0  0  0  0  0  0  0  0  0  0
   -4.6037    0.4382   -1.0241 H   0  0  0  0  0  0  0  0  0  0  0  0
  1  2  2  0  0  0  0
  2  3  1  0  0  0  0
  2 11  1  0  0  0  0
  3  4  1  0  0  0  0
  3  9  1  0  0  0  0
  4  5  1  0  0  0  0
  4 25  1  0  0  0  0
  5  6  1  0  0  0  0
  5 26  1  0  0  0  0
  6  7  1  0  0  0  0
  6 27  1  0  0  0  0
  7  8  1  0  0  0  0
  7  9  1  0  0  0  0
  8 28  1  0  0  0  0
  9 10  1  0  0  0  0
 10 11  1  0  0  0  0
 11 12  1  0  0  0  0
 12 13  1  0  0  0  0
 12 20  1  0  0  0  0
 13 14  2  0  0  0  0
 13 18  1  0  0  0  0
 14 15  1  0  0  0  0
 14 29  1  0  0  0  0
 15 16  2  0  0  0  0
 15 30  1  0  0  0  0
 16 17  1  0  0  0  0
 16 31  1  0  0  0  0
 17 18  2  0  0  0  0
 17 32  1  0  0  0  0
 18 19  1  0  0  0  0
 19 20  2  0  0  0  0
 19 24  1  0  0  0  0
 20 21  1  0  0  0  0
 21 22  1  0  0  0  0
 21 33  1  0  0  0  0
 21 34  1  0  0  0  0
 22 23  1  0  0  0  0
 22 35  1  0  0  0  0
 22 36  1  0  0  0  0
 23 24  1  0  0  0  0
 23 37  1  0  0  0  0
 23 38  1  0  0  0  0
 24 39  1  0  0  0  0
 24 40  1  0  0  0  0
M  END
> <total energy / Eh>
    -67.559037512115

> <gradient norm / Eh/a0>
      0.000945516424

$$$$
